1

   Abaqus 2023.HF4                                  Date 04-Sep-2024   Time 20:34:58
   For use by AALTO UNIVERSITY under license from Dassault Systemes or its subsidiary.

                                                                                 
                                                                                 
 STEP    1     INCREMENT     1     STEP TIME    0.00    


                        S T E P       1     C O U P L E D - T E M P E R A T U R E - D I S P L A C E M E N T   A N A L Y S I S


                                                                                          

          FIXED TIME INCREMENTS
          TIME INCREMENT IS                                    1.000E+04
          TIME PERIOD IS                                       1.000E+07

          CREEP AND SWELLING EFFECTS ARE OMITTED IN THIS STEP
          THE RATE DEPENDENCY WILL BE CONSIDERED IN THIS STEP

          CREEP AND SWELLING EFFECTS WILL BE IGNORED.

 CONVERGENCE TOLERANCE PARAMETERS FOR FORCE    
     CRITERION FOR RESIDUAL FORCE     FOR A NONLINEAR PROBLEM          5.000E-03
     CRITERION FOR DISP.    CORRECTION IN A NONLINEAR PROBLEM          1.000E-02
     INITIAL VALUE OF TIME AVERAGE FORCE                               1.000E-02
     AVERAGE FORCE     IS TIME AVERAGE FORCE    
     ALTERNATE CRIT. FOR RESIDUAL FORCE     FOR A NONLINEAR PROBLEM    2.000E-02
     CRITERION FOR ZERO FORCE     RELATIVE TO TIME AVRG. FORCE         1.000E-05
     CRITERION FOR RESIDUAL FORCE     WHEN THERE IS ZERO FLUX          1.000E-05
     CRITERION FOR DISP.    CORRECTION WHEN THERE IS ZERO FLUX         1.000E-03
     CRITERION FOR RESIDUAL FORCE     FOR A LINEAR INCREMENT           1.000E-08
     FIELD CONVERSION RATIO                                             1.00    
     CRITERION FOR ZERO FORCE     REL. TO TIME AVRG. MAX. FORCE        1.000E-05
     CRITERION FOR ZERO DISP.    RELATIVE TO CHARACTERISTIC LENGTH     1.000E-08

 CONVERGENCE TOLERANCE PARAMETERS FOR MOMENT   
     CRITERION FOR RESIDUAL MOMENT    FOR A NONLINEAR PROBLEM          5.000E-03
     CRITERION FOR ROTATION CORRECTION IN A NONLINEAR PROBLEM          1.000E-02
     INITIAL VALUE OF TIME AVERAGE MOMENT                              1.000E-02
     AVERAGE MOMENT    IS TIME AVERAGE MOMENT   
     ALTERNATE CRIT. FOR RESIDUAL MOMENT    FOR A NONLINEAR PROBLEM    2.000E-02
     CRITERION FOR ZERO MOMENT    RELATIVE TO TIME AVRG. MOMENT        1.000E-05
     CRITERION FOR RESIDUAL MOMENT    WHEN THERE IS ZERO FLUX          1.000E-05
     CRITERION FOR ROTATION CORRECTION WHEN THERE IS ZERO FLUX         1.000E-03
     CRITERION FOR RESIDUAL MOMENT    FOR A LINEAR INCREMENT           1.000E-08
     FIELD CONVERSION RATIO                                             1.00    
     CRITERION FOR ZERO MOMENT    REL. TO TIME AVRG. MAX. MOMENT       1.000E-05

 CONVERGENCE TOLERANCE PARAMETERS FOR HEAT FLUX
     CRITERION FOR RESIDUAL HEAT FLUX FOR A NONLINEAR PROBLEM          5.000E-03
     CRITERION FOR TEMP.    CORRECTION IN A NONLINEAR PROBLEM          1.000E-02
     INITIAL VALUE OF TIME AVERAGE HEAT FLUX                           1.000E-02
     AVERAGE HEAT FLUX IS TIME AVERAGE HEAT FLUX
     ALTERNATE CRIT. FOR RESIDUAL HEAT FLUX FOR A NONLINEAR PROBLEM    2.000E-02
     CRITERION FOR ZERO HEAT FLUX RELATIVE TO TIME AVRG. HEAT FLUX     1.000E-05
     CRITERION FOR RESIDUAL HEAT FLUX WHEN THERE IS ZERO FLUX          1.000E-05
     CRITERION FOR TEMP.    CORRECTION WHEN THERE IS ZERO FLUX         1.000E-03
     CRITERION FOR RESIDUAL HEAT FLUX FOR A LINEAR INCREMENT           1.000E-08
     FIELD CONVERSION RATIO                                             1.00    
     CRITERION FOR ZERO HEAT FLUX REL. TO TIME AVRG. MAX. HEAT FLUX    1.000E-05

     VOLUMETRIC STRAIN COMPATIBILITY TOLERANCE FOR HYBRID SOLIDS       1.000E-05
     AXIAL STRAIN COMPATIBILITY TOLERANCE FOR HYBRID BEAMS             1.000E-05
     TRANS. SHEAR STRAIN COMPATIBILITY TOLERANCE FOR HYBRID BEAMS      1.000E-05
     SOFT CONTACT CONSTRAINT COMPATIBILITY TOLERANCE FOR P>P0          5.000E-03
     SOFT CONTACT CONSTRAINT COMPATIBILITY TOLERANCE FOR P=0.0         0.100    
     CONTACT FORCE ERROR TOLERANCE FOR CONVERT SDI=YES                 1.00    
     DISPLACEMENT COMPATIBILITY TOLERANCE FOR DCOUP ELEMENTS           1.000E-05
     ROTATION COMPATIBILITY TOLERANCE FOR DCOUP ELEMENTS               1.000E-05

 EQUILIBRIUM WILL BE CHECKED FOR SEVERE DISCONTINUITY ITERATIONS

 ITERATION CONTROL PARAMETERS:
     FIRST EQUILIBRIUM ITERATION FOR CONSECUTIVE DIVERGENCE CHECK              4
     EQUILIBRIUM ITERATION AFTER WHICH ALTERNATE RESIDUAL IS USED              9
     MAXIMUM EQUILIBRIUM ITERATIONS ALLOWED                                   16
     MAXIMUM ITERATIONS FOR SEVERE DISCONTINUITIES                            12
     GLOBAL STABILIZATION CONTROL IS NOT USED

          PRINT OF INCREMENT NUMBER, TIME, ETC., EVERY    1  INCREMENTS

     THE MAXIMUM NUMBER OF INCREMENTS IN THIS STEP IS                 1000000

          LARGE DISPLACEMENT THEORY WILL BE USED

          UNSYMMETRIC MATRIX STORAGE AND SOLUTION WILL BE USED

     LINEAR EXTRAPOLATION WILL BE USED

     CHARACTERISTIC ELEMENT LENGTH     8.915E-06

     DETAILS REGARDING ACTUAL SOLUTION WAVEFRONT REQUESTED

     DETAILED OUTPUT OF DIAGNOSTICS TO DATABASE REQUESTED

     PRINT OF INCREMENT NUMBER, TIME, ETC., TO THE MESSAGE FILE EVERY     1  INCREMENTS

     ELEMENT OPERATIONS WILL BE CARRIED OUT IN PARALLEL USING   4 THREADS ON 1 DOMAIN

     PARALLEL CONTACT TRACKING ENABLED


     COLLECTING MODEL CONSTRAINT INFORMATION FOR OVERCONSTRAINT CHECKS

     COLLECTING STEP CONSTRAINT INFORMATION FOR OVERCONSTRAINT CHECKS


  INCREMENT     1 STARTS. ATTEMPT NUMBER  1, TIME INCREMENT  1.000E+04
 
     INITIAL ELEMENT LOAD BALANCE
            DOMAIN    1     THREAD    NUMBER OF ELEMENTS
                              1            10624
                              2            10624
                              3            9912
                              4            10032
 
	UNSYMMETRIC NEW DIRECT SPARSE SOLVER RUNNING ON
 	1 HOST x 1 MPI RANK PER HOST x 4 THREADS PER RANK
        NUMBER OF EQUATIONS:  131150
        NUMBER OF RHS:        1
        NUMBER OF FLOPS:      2.469e+11
        SOLVER ELAPSED TIME:  1.7s

               CONVERGENCE CHECKS FOR EQUILIBRIUM ITERATION     1


 AVERAGE FORCE                      4.223E-06   TIME AVG. FORCE       1.122E+03
                                                (FROM MOMENT    FIELD)
 LARGEST SCALED RESIDUAL FORCE      5.262E-16   AT NODE      24176   DOF  2
   INSTANCE: PLATE-1                                                                         
  CORRESPONDING RESIDUAL FORCE      5.262E-16
 LARGEST INCREMENT OF DISP.         1.064E-08   AT NODE        960   DOF  2
   INSTANCE: PLATE-1                                                                         
 LARGEST CORRECTION TO DISP.        1.064E-08   AT NODE        960   DOF  2
   INSTANCE: PLATE-1                                                                         
          THERE IS ZERO FORCE     EVERYWHERE

 AVERAGE MOMENT                      0.00       TIME AVG. MOMENT      1.000E-02
 ALL MOMENT    RESIDUALS ARE ZERO
 ALL ROTATION INCREMENTS ARE ZERO
 ALL CORRECTION TO ROTATION ARE ZERO
          THERE IS ZERO MOMENT    EVERYWHERE

 AVERAGE HEAT FLUX                  2.861E-22   TIME AVG. HEAT FLUX   1.000E-02
 LARGEST RESIDUAL HEAT FLUX         3.070E-20   AT NODE        582   DOF 11
   INSTANCE: PLATE-1                                                                         
 LARGEST INCREMENT OF TEMP.        -3.598E-15   AT NODE       1470   DOF 11
   INSTANCE: PLATE-1                                                                         
 LARGEST CORRECTION TO TEMP.       -3.598E-15   AT NODE       1470   DOF 11
   INSTANCE: PLATE-1                                                                         
          THERE IS ZERO HEAT FLUX EVERYWHERE
 

 ***WARNING: THERE IS ZERO HEAT FLUX EVERYWHERE IN THE MODEL BASED ON THE 
             DEFAULT CRITERION. PLEASE CHECK THE VALUE OF THE AVERAGE HEAT FLUX 
             DURING THE CURRENT ITERATION TO VERIFY THAT THE HEAT FLUX IS SMALL 
             ENOUGH TO BE TREATED AS ZERO. IF NOT, PLEASE USE THE SOLUTION 
             CONTROLS TO RESET THE CRITERION FOR ZERO HEAT FLUX.

 ITERATION SUMMARY FOR THE INCREMENT:   1 TOTAL ITERATIONS, OF WHICH
   0 ARE SEVERE DISCONTINUITY ITERATIONS AND  1 ARE EQUILIBRIUM ITERATIONS.

 TIME INCREMENT COMPLETED  1.000E+04,  FRACTION OF STEP COMPLETED  1.000E-03
 STEP TIME COMPLETED       1.000E+04,  TOTAL TIME COMPLETED        1.000E+04


  INCREMENT     2 STARTS. ATTEMPT NUMBER  1, TIME INCREMENT  1.000E+04
 
	UNSYMMETRIC NEW DIRECT SPARSE SOLVER RUNNING ON
 	1 HOST x 1 MPI RANK PER HOST x 4 THREADS PER RANK
        NUMBER OF EQUATIONS:  131150
        NUMBER OF RHS:        1
        NUMBER OF FLOPS:      2.469e+11
        SOLVER ELAPSED TIME:  1.8s

               CONVERGENCE CHECKS FOR EQUILIBRIUM ITERATION     1


 AVERAGE FORCE                      8.445E-06   TIME AVG. FORCE       1.122E+03
                                                (FROM MOMENT    FIELD)
 LARGEST SCALED RESIDUAL FORCE     -5.840E-17   AT NODE        592   DOF  2
   INSTANCE: PLATE-1                                                                         
  CORRESPONDING RESIDUAL FORCE     -5.840E-17
 LARGEST INCREMENT OF DISP.         1.064E-08   AT NODE        960   DOF  2
   INSTANCE: PLATE-1                                                                         
 LARGEST CORRECTION TO DISP.       -1.726E-19   AT NODE        481   DOF  3
   INSTANCE: PLATE-1                                                                         
          THERE IS ZERO FORCE     EVERYWHERE

 AVERAGE MOMENT                     1.877E-15   TIME AVG. MOMENT      1.000E-02
 LARGEST SCALED RESIDUAL MOMENT     1.576E-16   AT NODE        958   DOF  4
   INSTANCE: PLATE-1                                                                         
  CORRESPONDING RESIDUAL MOMENT     1.576E-16
 LARGEST INCREMENT OF ROTATION      3.912E-06   AT NODE        958   DOF  4
   INSTANCE: PLATE-1                                                                         
 LARGEST CORRECTION TO ROTATION     3.912E-06   AT NODE        958   DOF  4
   INSTANCE: PLATE-1                                                                         
          THERE IS ZERO MOMENT    EVERYWHERE
 

 ***WARNING: THERE IS ZERO MOMENT EVERYWHERE IN THE MODEL BASED ON THE DEFAULT 
             CRITERION. PLEASE CHECK THE VALUE OF THE AVERAGE MOMENT DURING THE 
             CURRENT ITERATION TO VERIFY THAT THE MOMENT IS SMALL ENOUGH TO BE 
             TREATED AS ZERO. IF NOT, PLEASE USE THE SOLUTION CONTROLS TO RESET 
             THE CRITERION FOR ZERO MOMENT.

 AVERAGE HEAT FLUX                  1.807E-11   TIME AVG. HEAT FLUX   1.000E-02
 LARGEST RESIDUAL HEAT FLUX         3.827E-20   AT NODE      26031   DOF 11
   INSTANCE: PLATE-1                                                                         
 LARGEST INCREMENT OF TEMP.         3.784E-03   AT NODE        958   DOF 11
   INSTANCE: PLATE-1                                                                         
 LARGEST CORRECTION TO TEMP.        3.784E-03   AT NODE        958   DOF 11
   INSTANCE: PLATE-1                                                                         
          THERE IS ZERO HEAT FLUX EVERYWHERE
 

 ***WARNING: THERE IS ZERO HEAT FLUX EVERYWHERE IN THE MODEL BASED ON THE 
             DEFAULT CRITERION. PLEASE CHECK THE VALUE OF THE AVERAGE HEAT FLUX 
             DURING THE CURRENT ITERATION TO VERIFY THAT THE HEAT FLUX IS SMALL 
             ENOUGH TO BE TREATED AS ZERO. IF NOT, PLEASE USE THE SOLUTION 
             CONTROLS TO RESET THE CRITERION FOR ZERO HEAT FLUX.

 ITERATION SUMMARY FOR THE INCREMENT:   1 TOTAL ITERATIONS, OF WHICH
   0 ARE SEVERE DISCONTINUITY ITERATIONS AND  1 ARE EQUILIBRIUM ITERATIONS.

 TIME INCREMENT COMPLETED  1.000E+04,  FRACTION OF STEP COMPLETED  2.000E-03
 STEP TIME COMPLETED       2.000E+04,  TOTAL TIME COMPLETED        2.000E+04


  INCREMENT     3 STARTS. ATTEMPT NUMBER  1, TIME INCREMENT  1.000E+04
 
	UNSYMMETRIC NEW DIRECT SPARSE SOLVER RUNNING ON
 	1 HOST x 1 MPI RANK PER HOST x 4 THREADS PER RANK
        NUMBER OF EQUATIONS:  131150
        NUMBER OF RHS:        1
        NUMBER OF FLOPS:      2.469e+11
        SOLVER ELAPSED TIME:  1.9s

               CONVERGENCE CHECKS FOR EQUILIBRIUM ITERATION     1


 AVERAGE FORCE                      1.267E-05   TIME AVG. FORCE       1.122E+03
                                                (FROM MOMENT    FIELD)
 LARGEST SCALED RESIDUAL FORCE     -6.451E-17   AT NODE        629   DOF  2
   INSTANCE: PLATE-1                                                                         
  CORRESPONDING RESIDUAL FORCE     -6.451E-17
 LARGEST INCREMENT OF DISP.         1.064E-08   AT NODE        960   DOF  2
   INSTANCE: PLATE-1                                                                         
 LARGEST CORRECTION TO DISP.       -1.115E-14   AT NODE       2699   DOF  2
   INSTANCE: PLATE-1                                                                         
          THERE IS ZERO FORCE     EVERYWHERE

 AVERAGE MOMENT                     7.512E-15   TIME AVG. MOMENT      1.000E-02
 LARGEST SCALED RESIDUAL MOMENT     3.627E-18   AT NODE        958   DOF  4
   INSTANCE: PLATE-1                                                                         
  CORRESPONDING RESIDUAL MOMENT     3.627E-18
 LARGEST INCREMENT OF ROTATION      1.174E-05   AT NODE        958   DOF  4
   INSTANCE: PLATE-1                                                                         
 LARGEST CORRECTION TO ROTATION     7.830E-06   AT NODE        958   DOF  4
   INSTANCE: PLATE-1                                                                         
          THERE IS ZERO MOMENT    EVERYWHERE
 

 ***WARNING: THERE IS ZERO MOMENT EVERYWHERE IN THE MODEL BASED ON THE DEFAULT 
             CRITERION. PLEASE CHECK THE VALUE OF THE AVERAGE MOMENT DURING THE 
             CURRENT ITERATION TO VERIFY THAT THE MOMENT IS SMALL ENOUGH TO BE 
             TREATED AS ZERO. IF NOT, PLEASE USE THE SOLUTION CONTROLS TO RESET 
             THE CRITERION FOR ZERO MOMENT.

 AVERAGE HEAT FLUX                  3.615E-11   TIME AVG. HEAT FLUX   1.000E-02
 LARGEST RESIDUAL HEAT FLUX         3.593E-20   AT NODE      21927   DOF 11
   INSTANCE: PLATE-1                                                                         
 LARGEST INCREMENT OF TEMP.         3.806E-03   AT NODE        958   DOF 11
   INSTANCE: PLATE-1                                                                         
 LARGEST CORRECTION TO TEMP.        2.192E-05   AT NODE        958   DOF 11
   INSTANCE: PLATE-1                                                                         
          THERE IS ZERO HEAT FLUX EVERYWHERE
 

 ***WARNING: THERE IS ZERO HEAT FLUX EVERYWHERE IN THE MODEL BASED ON THE 
             DEFAULT CRITERION. PLEASE CHECK THE VALUE OF THE AVERAGE HEAT FLUX 
             DURING THE CURRENT ITERATION TO VERIFY THAT THE HEAT FLUX IS SMALL 
             ENOUGH TO BE TREATED AS ZERO. IF NOT, PLEASE USE THE SOLUTION 
             CONTROLS TO RESET THE CRITERION FOR ZERO HEAT FLUX.

 ITERATION SUMMARY FOR THE INCREMENT:   1 TOTAL ITERATIONS, OF WHICH
   0 ARE SEVERE DISCONTINUITY ITERATIONS AND  1 ARE EQUILIBRIUM ITERATIONS.

 TIME INCREMENT COMPLETED  1.000E+04,  FRACTION OF STEP COMPLETED  3.000E-03
 STEP TIME COMPLETED       3.000E+04,  TOTAL TIME COMPLETED        3.000E+04


  INCREMENT     4 STARTS. ATTEMPT NUMBER  1, TIME INCREMENT  1.000E+04
 
	UNSYMMETRIC NEW DIRECT SPARSE SOLVER RUNNING ON
 	1 HOST x 1 MPI RANK PER HOST x 4 THREADS PER RANK
        NUMBER OF EQUATIONS:  131150
        NUMBER OF RHS:        1
        NUMBER OF FLOPS:      2.469e+11
        SOLVER ELAPSED TIME:  1.9s

               CONVERGENCE CHECKS FOR EQUILIBRIUM ITERATION     1


 AVERAGE FORCE                      1.689E-05   TIME AVG. FORCE       1.122E+03
                                                (FROM MOMENT    FIELD)
 LARGEST SCALED RESIDUAL FORCE     -6.027E-17   AT NODE       1620   DOF  2
   INSTANCE: PLATE-1                                                                         
  CORRESPONDING RESIDUAL FORCE     -6.027E-17
 LARGEST INCREMENT OF DISP.         1.064E-08   AT NODE        960   DOF  2
   INSTANCE: PLATE-1                                                                         
 LARGEST CORRECTION TO DISP.       -3.719E-14   AT NODE       3388   DOF  2
   INSTANCE: PLATE-1                                                                         
          THERE IS ZERO FORCE     EVERYWHERE

 AVERAGE MOMENT                     1.690E-14   TIME AVG. MOMENT      1.000E-02
 LARGEST SCALED RESIDUAL MOMENT     8.104E-18   AT NODE        958   DOF  4
   INSTANCE: PLATE-1                                                                         
  CORRESPONDING RESIDUAL MOMENT     8.104E-18
 LARGEST INCREMENT OF ROTATION      1.957E-05   AT NODE        958   DOF  4
   INSTANCE: PLATE-1                                                                         
 LARGEST CORRECTION TO ROTATION     7.831E-06   AT NODE        958   DOF  4
   INSTANCE: PLATE-1                                                                         
          THERE IS ZERO MOMENT    EVERYWHERE
 

 ***WARNING: THERE IS ZERO MOMENT EVERYWHERE IN THE MODEL BASED ON THE DEFAULT 
             CRITERION. PLEASE CHECK THE VALUE OF THE AVERAGE MOMENT DURING THE 
             CURRENT ITERATION TO VERIFY THAT THE MOMENT IS SMALL ENOUGH TO BE 
             TREATED AS ZERO. IF NOT, PLEASE USE THE SOLUTION CONTROLS TO RESET 
             THE CRITERION FOR ZERO MOMENT.

 AVERAGE HEAT FLUX                  5.424E-11   TIME AVG. HEAT FLUX   1.000E-02
 LARGEST RESIDUAL HEAT FLUX        -4.038E-20   AT NODE      23975   DOF 11
   INSTANCE: PLATE-1                                                                         
 LARGEST INCREMENT OF TEMP.         3.828E-03   AT NODE        958   DOF 11
   INSTANCE: PLATE-1                                                                         
 LARGEST CORRECTION TO TEMP.        2.193E-05   AT NODE        958   DOF 11
   INSTANCE: PLATE-1                                                                         
          THERE IS ZERO HEAT FLUX EVERYWHERE
 

 ***WARNING: THERE IS ZERO HEAT FLUX EVERYWHERE IN THE MODEL BASED ON THE 
             DEFAULT CRITERION. PLEASE CHECK THE VALUE OF THE AVERAGE HEAT FLUX 
             DURING THE CURRENT ITERATION TO VERIFY THAT THE HEAT FLUX IS SMALL 
             ENOUGH TO BE TREATED AS ZERO. IF NOT, PLEASE USE THE SOLUTION 
             CONTROLS TO RESET THE CRITERION FOR ZERO HEAT FLUX.

 ITERATION SUMMARY FOR THE INCREMENT:   1 TOTAL ITERATIONS, OF WHICH
   0 ARE SEVERE DISCONTINUITY ITERATIONS AND  1 ARE EQUILIBRIUM ITERATIONS.

 TIME INCREMENT COMPLETED  1.000E+04,  FRACTION OF STEP COMPLETED  4.000E-03
 STEP TIME COMPLETED       4.000E+04,  TOTAL TIME COMPLETED        4.000E+04


  INCREMENT     5 STARTS. ATTEMPT NUMBER  1, TIME INCREMENT  1.000E+04
 
	UNSYMMETRIC NEW DIRECT SPARSE SOLVER RUNNING ON
 	1 HOST x 1 MPI RANK PER HOST x 4 THREADS PER RANK
        NUMBER OF EQUATIONS:  131150
        NUMBER OF RHS:        1
        NUMBER OF FLOPS:      2.469e+11
        SOLVER ELAPSED TIME:  1.7s

               CONVERGENCE CHECKS FOR EQUILIBRIUM ITERATION     1


 AVERAGE FORCE                      2.111E-05   TIME AVG. FORCE       1.122E+03
                                                (FROM MOMENT    FIELD)
 LARGEST SCALED RESIDUAL FORCE     -7.437E-17   AT NODE       1071   DOF  2
   INSTANCE: PLATE-1                                                                         
  CORRESPONDING RESIDUAL FORCE     -7.437E-17
 LARGEST INCREMENT OF DISP.         1.064E-08   AT NODE        960   DOF  2
   INSTANCE: PLATE-1                                                                         
 LARGEST CORRECTION TO DISP.       -5.952E-14   AT NODE       3388   DOF  2
   INSTANCE: PLATE-1                                                                         
          THERE IS ZERO FORCE     EVERYWHERE

 AVERAGE MOMENT                     3.006E-14   TIME AVG. MOMENT      1.000E-02
 LARGEST SCALED RESIDUAL MOMENT     1.433E-17   AT NODE        958   DOF  4
   INSTANCE: PLATE-1                                                                         
  CORRESPONDING RESIDUAL MOMENT     1.433E-17
 LARGEST INCREMENT OF ROTATION      2.741E-05   AT NODE        958   DOF  4
   INSTANCE: PLATE-1                                                                         
 LARGEST CORRECTION TO ROTATION     7.836E-06   AT NODE        958   DOF  4
   INSTANCE: PLATE-1                                                                         
          THERE IS ZERO MOMENT    EVERYWHERE
 

 ***WARNING: THERE IS ZERO MOMENT EVERYWHERE IN THE MODEL BASED ON THE DEFAULT 
             CRITERION. PLEASE CHECK THE VALUE OF THE AVERAGE MOMENT DURING THE 
             CURRENT ITERATION TO VERIFY THAT THE MOMENT IS SMALL ENOUGH TO BE 
             TREATED AS ZERO. IF NOT, PLEASE USE THE SOLUTION CONTROLS TO RESET 
             THE CRITERION FOR ZERO MOMENT.

 AVERAGE HEAT FLUX                  7.233E-11   TIME AVG. HEAT FLUX   1.000E-02
 LARGEST RESIDUAL HEAT FLUX         5.636E-20   AT NODE      23986   DOF 11
   INSTANCE: PLATE-1                                                                         
 LARGEST INCREMENT OF TEMP.         3.850E-03   AT NODE        958   DOF 11
   INSTANCE: PLATE-1                                                                         
 LARGEST CORRECTION TO TEMP.        2.198E-05   AT NODE        958   DOF 11
   INSTANCE: PLATE-1                                                                         
          THERE IS ZERO HEAT FLUX EVERYWHERE
 

 ***WARNING: THERE IS ZERO HEAT FLUX EVERYWHERE IN THE MODEL BASED ON THE 
             DEFAULT CRITERION. PLEASE CHECK THE VALUE OF THE AVERAGE HEAT FLUX 
             DURING THE CURRENT ITERATION TO VERIFY THAT THE HEAT FLUX IS SMALL 
             ENOUGH TO BE TREATED AS ZERO. IF NOT, PLEASE USE THE SOLUTION 
             CONTROLS TO RESET THE CRITERION FOR ZERO HEAT FLUX.

 ITERATION SUMMARY FOR THE INCREMENT:   1 TOTAL ITERATIONS, OF WHICH
   0 ARE SEVERE DISCONTINUITY ITERATIONS AND  1 ARE EQUILIBRIUM ITERATIONS.

 TIME INCREMENT COMPLETED  1.000E+04,  FRACTION OF STEP COMPLETED  5.000E-03
 STEP TIME COMPLETED       5.000E+04,  TOTAL TIME COMPLETED        5.000E+04


  INCREMENT     6 STARTS. ATTEMPT NUMBER  1, TIME INCREMENT  1.000E+04
 
	UNSYMMETRIC NEW DIRECT SPARSE SOLVER RUNNING ON
 	1 HOST x 1 MPI RANK PER HOST x 4 THREADS PER RANK
        NUMBER OF EQUATIONS:  131150
        NUMBER OF RHS:        1
        NUMBER OF FLOPS:      2.469e+11
        SOLVER ELAPSED TIME:  1.7s

               CONVERGENCE CHECKS FOR EQUILIBRIUM ITERATION     1


 AVERAGE FORCE                      2.534E-05   TIME AVG. FORCE       1.122E+03
                                                (FROM MOMENT    FIELD)
 LARGEST SCALED RESIDUAL FORCE     -7.026E-17   AT NODE       1062   DOF  2
   INSTANCE: PLATE-1                                                                         
  CORRESPONDING RESIDUAL FORCE     -7.026E-17
 LARGEST INCREMENT OF DISP.         1.064E-08   AT NODE        960   DOF  2
   INSTANCE: PLATE-1                                                                         
 LARGEST CORRECTION TO DISP.       -8.189E-14   AT NODE       3388   DOF  2
   INSTANCE: PLATE-1                                                                         
          THERE IS ZERO FORCE     EVERYWHERE

 AVERAGE MOMENT                     4.697E-14   TIME AVG. MOMENT      1.000E-02
 LARGEST SCALED RESIDUAL MOMENT     2.227E-17   AT NODE        958   DOF  4
   INSTANCE: PLATE-1                                                                         
  CORRESPONDING RESIDUAL MOMENT     2.227E-17
 LARGEST INCREMENT OF ROTATION      3.525E-05   AT NODE        958   DOF  4
   INSTANCE: PLATE-1                                                                         
 LARGEST CORRECTION TO ROTATION     7.840E-06   AT NODE        958   DOF  4
   INSTANCE: PLATE-1                                                                         
          THERE IS ZERO MOMENT    EVERYWHERE
 

 ***WARNING: THERE IS ZERO MOMENT EVERYWHERE IN THE MODEL BASED ON THE DEFAULT 
             CRITERION. PLEASE CHECK THE VALUE OF THE AVERAGE MOMENT DURING THE 
             CURRENT ITERATION TO VERIFY THAT THE MOMENT IS SMALL ENOUGH TO BE 
             TREATED AS ZERO. IF NOT, PLEASE USE THE SOLUTION CONTROLS TO RESET 
             THE CRITERION FOR ZERO MOMENT.

 AVERAGE HEAT FLUX                  9.043E-11   TIME AVG. HEAT FLUX   1.000E-02
 LARGEST RESIDUAL HEAT FLUX         4.376E-20   AT NODE      21915   DOF 11
   INSTANCE: PLATE-1                                                                         
 LARGEST INCREMENT OF TEMP.         3.872E-03   AT NODE        958   DOF 11
   INSTANCE: PLATE-1                                                                         
 LARGEST CORRECTION TO TEMP.        2.202E-05   AT NODE        958   DOF 11
   INSTANCE: PLATE-1                                                                         
          THERE IS ZERO HEAT FLUX EVERYWHERE
 

 ***WARNING: THERE IS ZERO HEAT FLUX EVERYWHERE IN THE MODEL BASED ON THE 
             DEFAULT CRITERION. PLEASE CHECK THE VALUE OF THE AVERAGE HEAT FLUX 
             DURING THE CURRENT ITERATION TO VERIFY THAT THE HEAT FLUX IS SMALL 
             ENOUGH TO BE TREATED AS ZERO. IF NOT, PLEASE USE THE SOLUTION 
             CONTROLS TO RESET THE CRITERION FOR ZERO HEAT FLUX.

 ITERATION SUMMARY FOR THE INCREMENT:   1 TOTAL ITERATIONS, OF WHICH
   0 ARE SEVERE DISCONTINUITY ITERATIONS AND  1 ARE EQUILIBRIUM ITERATIONS.

 TIME INCREMENT COMPLETED  1.000E+04,  FRACTION OF STEP COMPLETED  6.000E-03
 STEP TIME COMPLETED       6.000E+04,  TOTAL TIME COMPLETED        6.000E+04


  INCREMENT     7 STARTS. ATTEMPT NUMBER  1, TIME INCREMENT  1.000E+04
 
	UNSYMMETRIC NEW DIRECT SPARSE SOLVER RUNNING ON
 	1 HOST x 1 MPI RANK PER HOST x 4 THREADS PER RANK
        NUMBER OF EQUATIONS:  131150
        NUMBER OF RHS:        1
        NUMBER OF FLOPS:      2.469e+11
        SOLVER ELAPSED TIME:  1.7s

               CONVERGENCE CHECKS FOR EQUILIBRIUM ITERATION     1


 AVERAGE FORCE                      2.956E-05   TIME AVG. FORCE       1.122E+03
                                                (FROM MOMENT    FIELD)
 LARGEST SCALED RESIDUAL FORCE     -5.264E-17   AT NODE       1669   DOF  2
   INSTANCE: PLATE-1                                                                         
  CORRESPONDING RESIDUAL FORCE     -5.264E-17
 LARGEST INCREMENT OF DISP.         1.064E-08   AT NODE        960   DOF  2
   INSTANCE: PLATE-1                                                                         
 LARGEST CORRECTION TO DISP.       -1.043E-13   AT NODE       3388   DOF  2
   INSTANCE: PLATE-1                                                                         
          THERE IS ZERO FORCE     EVERYWHERE

 AVERAGE MOMENT                     6.764E-14   TIME AVG. MOMENT      1.000E-02
 LARGEST SCALED RESIDUAL MOMENT     3.188E-17   AT NODE        958   DOF  4
   INSTANCE: PLATE-1                                                                         
  CORRESPONDING RESIDUAL MOMENT     3.188E-17
 LARGEST INCREMENT OF ROTATION      4.309E-05   AT NODE        958   DOF  4
   INSTANCE: PLATE-1                                                                         
 LARGEST CORRECTION TO ROTATION     7.845E-06   AT NODE        958   DOF  4
   INSTANCE: PLATE-1                                                                         
          THERE IS ZERO MOMENT    EVERYWHERE
 

 ***WARNING: THERE IS ZERO MOMENT EVERYWHERE IN THE MODEL BASED ON THE DEFAULT 
             CRITERION. PLEASE CHECK THE VALUE OF THE AVERAGE MOMENT DURING THE 
             CURRENT ITERATION TO VERIFY THAT THE MOMENT IS SMALL ENOUGH TO BE 
             TREATED AS ZERO. IF NOT, PLEASE USE THE SOLUTION CONTROLS TO RESET 
             THE CRITERION FOR ZERO MOMENT.

 AVERAGE HEAT FLUX                  1.085E-10   TIME AVG. HEAT FLUX   1.000E-02
 LARGEST RESIDUAL HEAT FLUX         3.890E-20   AT NODE      21962   DOF 11
   INSTANCE: PLATE-1                                                                         
 LARGEST INCREMENT OF TEMP.         3.894E-03   AT NODE        958   DOF 11
   INSTANCE: PLATE-1                                                                         
 LARGEST CORRECTION TO TEMP.        2.206E-05   AT NODE        958   DOF 11
   INSTANCE: PLATE-1                                                                         
          THERE IS ZERO HEAT FLUX EVERYWHERE
 

 ***WARNING: THERE IS ZERO HEAT FLUX EVERYWHERE IN THE MODEL BASED ON THE 
             DEFAULT CRITERION. PLEASE CHECK THE VALUE OF THE AVERAGE HEAT FLUX 
             DURING THE CURRENT ITERATION TO VERIFY THAT THE HEAT FLUX IS SMALL 
             ENOUGH TO BE TREATED AS ZERO. IF NOT, PLEASE USE THE SOLUTION 
             CONTROLS TO RESET THE CRITERION FOR ZERO HEAT FLUX.

 ITERATION SUMMARY FOR THE INCREMENT:   1 TOTAL ITERATIONS, OF WHICH
   0 ARE SEVERE DISCONTINUITY ITERATIONS AND  1 ARE EQUILIBRIUM ITERATIONS.

 TIME INCREMENT COMPLETED  1.000E+04,  FRACTION OF STEP COMPLETED  7.000E-03
 STEP TIME COMPLETED       7.000E+04,  TOTAL TIME COMPLETED        7.000E+04


  INCREMENT     8 STARTS. ATTEMPT NUMBER  1, TIME INCREMENT  1.000E+04
 
	UNSYMMETRIC NEW DIRECT SPARSE SOLVER RUNNING ON
 	1 HOST x 1 MPI RANK PER HOST x 4 THREADS PER RANK
        NUMBER OF EQUATIONS:  131150
        NUMBER OF RHS:        1
        NUMBER OF FLOPS:      2.469e+11
        SOLVER ELAPSED TIME:  1.8s

               CONVERGENCE CHECKS FOR EQUILIBRIUM ITERATION     1


 AVERAGE FORCE                      3.378E-05   TIME AVG. FORCE       1.122E+03
                                                (FROM MOMENT    FIELD)
 LARGEST SCALED RESIDUAL FORCE      5.329E-17   AT NODE       1062   DOF  2
   INSTANCE: PLATE-1                                                                         
  CORRESPONDING RESIDUAL FORCE      5.329E-17
 LARGEST INCREMENT OF DISP.         1.064E-08   AT NODE        960   DOF  2
   INSTANCE: PLATE-1                                                                         
 LARGEST CORRECTION TO DISP.       -1.267E-13   AT NODE       3388   DOF  2
   INSTANCE: PLATE-1                                                                         
          THERE IS ZERO FORCE     EVERYWHERE

 AVERAGE MOMENT                     9.208E-14   TIME AVG. MOMENT      1.000E-02
 LARGEST SCALED RESIDUAL MOMENT     4.314E-17   AT NODE        958   DOF  4
   INSTANCE: PLATE-1                                                                         
  CORRESPONDING RESIDUAL MOMENT     4.314E-17
 LARGEST INCREMENT OF ROTATION      5.094E-05   AT NODE        958   DOF  4
   INSTANCE: PLATE-1                                                                         
 LARGEST CORRECTION TO ROTATION     7.849E-06   AT NODE        958   DOF  4
   INSTANCE: PLATE-1                                                                         
          THERE IS ZERO MOMENT    EVERYWHERE
 

 ***WARNING: THERE IS ZERO MOMENT EVERYWHERE IN THE MODEL BASED ON THE DEFAULT 
             CRITERION. PLEASE CHECK THE VALUE OF THE AVERAGE MOMENT DURING THE 
             CURRENT ITERATION TO VERIFY THAT THE MOMENT IS SMALL ENOUGH TO BE 
             TREATED AS ZERO. IF NOT, PLEASE USE THE SOLUTION CONTROLS TO RESET 
             THE CRITERION FOR ZERO MOMENT.

 AVERAGE HEAT FLUX                  1.267E-10   TIME AVG. HEAT FLUX   1.000E-02
 LARGEST RESIDUAL HEAT FLUX        -3.475E-20   AT NODE      26032   DOF 11
   INSTANCE: PLATE-1                                                                         
 LARGEST INCREMENT OF TEMP.         3.916E-03   AT NODE        958   DOF 11
   INSTANCE: PLATE-1                                                                         
 LARGEST CORRECTION TO TEMP.        2.210E-05   AT NODE        958   DOF 11
   INSTANCE: PLATE-1                                                                         
          THERE IS ZERO HEAT FLUX EVERYWHERE
 

 ***WARNING: THERE IS ZERO HEAT FLUX EVERYWHERE IN THE MODEL BASED ON THE 
             DEFAULT CRITERION. PLEASE CHECK THE VALUE OF THE AVERAGE HEAT FLUX 
             DURING THE CURRENT ITERATION TO VERIFY THAT THE HEAT FLUX IS SMALL 
             ENOUGH TO BE TREATED AS ZERO. IF NOT, PLEASE USE THE SOLUTION 
             CONTROLS TO RESET THE CRITERION FOR ZERO HEAT FLUX.

 ITERATION SUMMARY FOR THE INCREMENT:   1 TOTAL ITERATIONS, OF WHICH
   0 ARE SEVERE DISCONTINUITY ITERATIONS AND  1 ARE EQUILIBRIUM ITERATIONS.

 TIME INCREMENT COMPLETED  1.000E+04,  FRACTION OF STEP COMPLETED  8.000E-03
 STEP TIME COMPLETED       8.000E+04,  TOTAL TIME COMPLETED        8.000E+04


  INCREMENT     9 STARTS. ATTEMPT NUMBER  1, TIME INCREMENT  1.000E+04
 
	UNSYMMETRIC NEW DIRECT SPARSE SOLVER RUNNING ON
 	1 HOST x 1 MPI RANK PER HOST x 4 THREADS PER RANK
        NUMBER OF EQUATIONS:  131150
        NUMBER OF RHS:        1
        NUMBER OF FLOPS:      2.469e+11
        SOLVER ELAPSED TIME:  1.7s

               CONVERGENCE CHECKS FOR EQUILIBRIUM ITERATION     1


 AVERAGE FORCE                      3.800E-05   TIME AVG. FORCE       1.122E+03
                                                (FROM MOMENT    FIELD)
 LARGEST SCALED RESIDUAL FORCE      5.688E-17   AT NODE       1581   DOF  2
   INSTANCE: PLATE-1                                                                         
  CORRESPONDING RESIDUAL FORCE      5.688E-17
 LARGEST INCREMENT OF DISP.         1.064E-08   AT NODE        960   DOF  2
   INSTANCE: PLATE-1                                                                         
 LARGEST CORRECTION TO DISP.       -1.492E-13   AT NODE       3388   DOF  2
   INSTANCE: PLATE-1                                                                         
          THERE IS ZERO FORCE     EVERYWHERE

 AVERAGE MOMENT                     1.203E-13   TIME AVG. MOMENT      1.000E-02
 LARGEST SCALED RESIDUAL MOMENT     5.601E-17   AT NODE        958   DOF  4
   INSTANCE: PLATE-1                                                                         
  CORRESPONDING RESIDUAL MOMENT     5.601E-17
 LARGEST INCREMENT OF ROTATION      5.880E-05   AT NODE        958   DOF  4
   INSTANCE: PLATE-1                                                                         
 LARGEST CORRECTION TO ROTATION     7.854E-06   AT NODE        958   DOF  4
   INSTANCE: PLATE-1                                                                         
          THERE IS ZERO MOMENT    EVERYWHERE
 

 ***WARNING: THERE IS ZERO MOMENT EVERYWHERE IN THE MODEL BASED ON THE DEFAULT 
             CRITERION. PLEASE CHECK THE VALUE OF THE AVERAGE MOMENT DURING THE 
             CURRENT ITERATION TO VERIFY THAT THE MOMENT IS SMALL ENOUGH TO BE 
             TREATED AS ZERO. IF NOT, PLEASE USE THE SOLUTION CONTROLS TO RESET 
             THE CRITERION FOR ZERO MOMENT.

 AVERAGE HEAT FLUX                  1.448E-10   TIME AVG. HEAT FLUX   1.000E-02
 LARGEST RESIDUAL HEAT FLUX         4.374E-20   AT NODE      26032   DOF 11
   INSTANCE: PLATE-1                                                                         
 LARGEST INCREMENT OF TEMP.         3.938E-03   AT NODE        958   DOF 11
   INSTANCE: PLATE-1                                                                         
 LARGEST CORRECTION TO TEMP.        2.213E-05   AT NODE        958   DOF 11
   INSTANCE: PLATE-1                                                                         
          THERE IS ZERO HEAT FLUX EVERYWHERE
 

 ***WARNING: THERE IS ZERO HEAT FLUX EVERYWHERE IN THE MODEL BASED ON THE 
             DEFAULT CRITERION. PLEASE CHECK THE VALUE OF THE AVERAGE HEAT FLUX 
             DURING THE CURRENT ITERATION TO VERIFY THAT THE HEAT FLUX IS SMALL 
             ENOUGH TO BE TREATED AS ZERO. IF NOT, PLEASE USE THE SOLUTION 
             CONTROLS TO RESET THE CRITERION FOR ZERO HEAT FLUX.

 ITERATION SUMMARY FOR THE INCREMENT:   1 TOTAL ITERATIONS, OF WHICH
   0 ARE SEVERE DISCONTINUITY ITERATIONS AND  1 ARE EQUILIBRIUM ITERATIONS.

 TIME INCREMENT COMPLETED  1.000E+04,  FRACTION OF STEP COMPLETED  9.000E-03
 STEP TIME COMPLETED       9.000E+04,  TOTAL TIME COMPLETED        9.000E+04


  INCREMENT    10 STARTS. ATTEMPT NUMBER  1, TIME INCREMENT  1.000E+04
 
	UNSYMMETRIC NEW DIRECT SPARSE SOLVER RUNNING ON
 	1 HOST x 1 MPI RANK PER HOST x 4 THREADS PER RANK
        NUMBER OF EQUATIONS:  131150
        NUMBER OF RHS:        1
        NUMBER OF FLOPS:      2.469e+11
        SOLVER ELAPSED TIME:  1.8s

               CONVERGENCE CHECKS FOR EQUILIBRIUM ITERATION     1


 AVERAGE FORCE                      4.222E-05   TIME AVG. FORCE       1.122E+03
                                                (FROM MOMENT    FIELD)
 LARGEST SCALED RESIDUAL FORCE     -6.442E-17   AT NODE        589   DOF  2
   INSTANCE: PLATE-1                                                                         
  CORRESPONDING RESIDUAL FORCE     -6.442E-17
 LARGEST INCREMENT OF DISP.         1.064E-08   AT NODE        960   DOF  2
   INSTANCE: PLATE-1                                                                         
 LARGEST CORRECTION TO DISP.       -1.716E-13   AT NODE       3388   DOF  2
   INSTANCE: PLATE-1                                                                         
          THERE IS ZERO FORCE     EVERYWHERE

 AVERAGE MOMENT                     1.523E-13   TIME AVG. MOMENT      1.000E-02
 LARGEST SCALED RESIDUAL MOMENT     7.046E-17   AT NODE        958   DOF  4
   INSTANCE: PLATE-1                                                                         
  CORRESPONDING RESIDUAL MOMENT     7.046E-17
 LARGEST INCREMENT OF ROTATION      6.666E-05   AT NODE        958   DOF  4
   INSTANCE: PLATE-1                                                                         
 LARGEST CORRECTION TO ROTATION     7.858E-06   AT NODE        958   DOF  4
   INSTANCE: PLATE-1                                                                         
          THERE IS ZERO MOMENT    EVERYWHERE
 

 ***WARNING: THERE IS ZERO MOMENT EVERYWHERE IN THE MODEL BASED ON THE DEFAULT 
             CRITERION. PLEASE CHECK THE VALUE OF THE AVERAGE MOMENT DURING THE 
             CURRENT ITERATION TO VERIFY THAT THE MOMENT IS SMALL ENOUGH TO BE 
             TREATED AS ZERO. IF NOT, PLEASE USE THE SOLUTION CONTROLS TO RESET 
             THE CRITERION FOR ZERO MOMENT.

 AVERAGE HEAT FLUX                  1.629E-10   TIME AVG. HEAT FLUX   1.000E-02
 LARGEST RESIDUAL HEAT FLUX         4.280E-20   AT NODE      24179   DOF 11
   INSTANCE: PLATE-1                                                                         
 LARGEST INCREMENT OF TEMP.         3.960E-03   AT NODE        958   DOF 11
   INSTANCE: PLATE-1                                                                         
 LARGEST CORRECTION TO TEMP.        2.217E-05   AT NODE        958   DOF 11
   INSTANCE: PLATE-1                                                                         
          THERE IS ZERO HEAT FLUX EVERYWHERE
 

 ***WARNING: THERE IS ZERO HEAT FLUX EVERYWHERE IN THE MODEL BASED ON THE 
             DEFAULT CRITERION. PLEASE CHECK THE VALUE OF THE AVERAGE HEAT FLUX 
             DURING THE CURRENT ITERATION TO VERIFY THAT THE HEAT FLUX IS SMALL 
             ENOUGH TO BE TREATED AS ZERO. IF NOT, PLEASE USE THE SOLUTION 
             CONTROLS TO RESET THE CRITERION FOR ZERO HEAT FLUX.

 ITERATION SUMMARY FOR THE INCREMENT:   1 TOTAL ITERATIONS, OF WHICH
   0 ARE SEVERE DISCONTINUITY ITERATIONS AND  1 ARE EQUILIBRIUM ITERATIONS.

 TIME INCREMENT COMPLETED  1.000E+04,  FRACTION OF STEP COMPLETED  1.000E-02
 STEP TIME COMPLETED       1.000E+05,  TOTAL TIME COMPLETED        1.000E+05


  INCREMENT    11 STARTS. ATTEMPT NUMBER  1, TIME INCREMENT  1.000E+04
 
	UNSYMMETRIC NEW DIRECT SPARSE SOLVER RUNNING ON
 	1 HOST x 1 MPI RANK PER HOST x 4 THREADS PER RANK
        NUMBER OF EQUATIONS:  131150
        NUMBER OF RHS:        1
        NUMBER OF FLOPS:      2.469e+11
        SOLVER ELAPSED TIME:  1.7s

               CONVERGENCE CHECKS FOR EQUILIBRIUM ITERATION     1


 AVERAGE FORCE                      4.644E-05   TIME AVG. FORCE       1.122E+03
                                                (FROM MOMENT    FIELD)
 LARGEST SCALED RESIDUAL FORCE      5.364E-17   AT NODE       1107   DOF  2
   INSTANCE: PLATE-1                                                                         
  CORRESPONDING RESIDUAL FORCE      5.364E-17
 LARGEST INCREMENT OF DISP.         1.064E-08   AT NODE        960   DOF  2
   INSTANCE: PLATE-1                                                                         
 LARGEST CORRECTION TO DISP.       -1.942E-13   AT NODE       3388   DOF  2
   INSTANCE: PLATE-1                                                                         
          THERE IS ZERO FORCE     EVERYWHERE

 AVERAGE MOMENT                     1.880E-13   TIME AVG. MOMENT      1.000E-02
 LARGEST SCALED RESIDUAL MOMENT     8.646E-17   AT NODE        958   DOF  4
   INSTANCE: PLATE-1                                                                         
  CORRESPONDING RESIDUAL MOMENT     8.646E-17
 LARGEST INCREMENT OF ROTATION      7.452E-05   AT NODE        958   DOF  4
   INSTANCE: PLATE-1                                                                         
 LARGEST CORRECTION TO ROTATION     7.863E-06   AT NODE        958   DOF  4
   INSTANCE: PLATE-1                                                                         
          THERE IS ZERO MOMENT    EVERYWHERE
 

 ***WARNING: THERE IS ZERO MOMENT EVERYWHERE IN THE MODEL BASED ON THE DEFAULT 
             CRITERION. PLEASE CHECK THE VALUE OF THE AVERAGE MOMENT DURING THE 
             CURRENT ITERATION TO VERIFY THAT THE MOMENT IS SMALL ENOUGH TO BE 
             TREATED AS ZERO. IF NOT, PLEASE USE THE SOLUTION CONTROLS TO RESET 
             THE CRITERION FOR ZERO MOMENT.

 AVERAGE HEAT FLUX                  1.810E-10   TIME AVG. HEAT FLUX   1.000E-02
 LARGEST RESIDUAL HEAT FLUX        -4.784E-20   AT NODE      22122   DOF 11
   INSTANCE: PLATE-1                                                                         
 LARGEST INCREMENT OF TEMP.         3.982E-03   AT NODE        958   DOF 11
   INSTANCE: PLATE-1                                                                         
 LARGEST CORRECTION TO TEMP.        2.220E-05   AT NODE        958   DOF 11
   INSTANCE: PLATE-1                                                                         
          THERE IS ZERO HEAT FLUX EVERYWHERE
 

 ***WARNING: THERE IS ZERO HEAT FLUX EVERYWHERE IN THE MODEL BASED ON THE 
             DEFAULT CRITERION. PLEASE CHECK THE VALUE OF THE AVERAGE HEAT FLUX 
             DURING THE CURRENT ITERATION TO VERIFY THAT THE HEAT FLUX IS SMALL 
             ENOUGH TO BE TREATED AS ZERO. IF NOT, PLEASE USE THE SOLUTION 
             CONTROLS TO RESET THE CRITERION FOR ZERO HEAT FLUX.

 ITERATION SUMMARY FOR THE INCREMENT:   1 TOTAL ITERATIONS, OF WHICH
   0 ARE SEVERE DISCONTINUITY ITERATIONS AND  1 ARE EQUILIBRIUM ITERATIONS.

 TIME INCREMENT COMPLETED  1.000E+04,  FRACTION OF STEP COMPLETED  1.100E-02
 STEP TIME COMPLETED       1.100E+05,  TOTAL TIME COMPLETED        1.100E+05


  INCREMENT    12 STARTS. ATTEMPT NUMBER  1, TIME INCREMENT  1.000E+04
 
	UNSYMMETRIC NEW DIRECT SPARSE SOLVER RUNNING ON
 	1 HOST x 1 MPI RANK PER HOST x 4 THREADS PER RANK
        NUMBER OF EQUATIONS:  131150
        NUMBER OF RHS:        1
        NUMBER OF FLOPS:      2.469e+11
        SOLVER ELAPSED TIME:  1.7s

               CONVERGENCE CHECKS FOR EQUILIBRIUM ITERATION     1


 AVERAGE FORCE                      5.066E-05   TIME AVG. FORCE       1.122E+03
                                                (FROM MOMENT    FIELD)
 LARGEST SCALED RESIDUAL FORCE     -6.310E-17   AT NODE      26033   DOF  2
   INSTANCE: PLATE-1                                                                         
  CORRESPONDING RESIDUAL FORCE     -6.310E-17
 LARGEST INCREMENT OF DISP.         1.064E-08   AT NODE        960   DOF  2
   INSTANCE: PLATE-1                                                                         
 LARGEST CORRECTION TO DISP.       -2.167E-13   AT NODE       3388   DOF  2
   INSTANCE: PLATE-1                                                                         
          THERE IS ZERO FORCE     EVERYWHERE

 AVERAGE MOMENT                     2.275E-13   TIME AVG. MOMENT      1.000E-02
 LARGEST SCALED RESIDUAL MOMENT     1.040E-16   AT NODE        958   DOF  4
   INSTANCE: PLATE-1                                                                         
  CORRESPONDING RESIDUAL MOMENT     1.040E-16
 LARGEST INCREMENT OF ROTATION      8.239E-05   AT NODE        958   DOF  4
   INSTANCE: PLATE-1                                                                         
 LARGEST CORRECTION TO ROTATION     7.868E-06   AT NODE        958   DOF  4
   INSTANCE: PLATE-1                                                                         
          THERE IS ZERO MOMENT    EVERYWHERE
 

 ***WARNING: THERE IS ZERO MOMENT EVERYWHERE IN THE MODEL BASED ON THE DEFAULT 
             CRITERION. PLEASE CHECK THE VALUE OF THE AVERAGE MOMENT DURING THE 
             CURRENT ITERATION TO VERIFY THAT THE MOMENT IS SMALL ENOUGH TO BE 
             TREATED AS ZERO. IF NOT, PLEASE USE THE SOLUTION CONTROLS TO RESET 
             THE CRITERION FOR ZERO MOMENT.

 AVERAGE HEAT FLUX                  1.992E-10   TIME AVG. HEAT FLUX   1.000E-02
 LARGEST RESIDUAL HEAT FLUX         4.195E-20   AT NODE      23975   DOF 11
   INSTANCE: PLATE-1                                                                         
 LARGEST INCREMENT OF TEMP.         4.005E-03   AT NODE        958   DOF 11
   INSTANCE: PLATE-1                                                                         
 LARGEST CORRECTION TO TEMP.        2.223E-05   AT NODE        958   DOF 11
   INSTANCE: PLATE-1                                                                         
          THERE IS ZERO HEAT FLUX EVERYWHERE
 

 ***WARNING: THERE IS ZERO HEAT FLUX EVERYWHERE IN THE MODEL BASED ON THE 
             DEFAULT CRITERION. PLEASE CHECK THE VALUE OF THE AVERAGE HEAT FLUX 
             DURING THE CURRENT ITERATION TO VERIFY THAT THE HEAT FLUX IS SMALL 
             ENOUGH TO BE TREATED AS ZERO. IF NOT, PLEASE USE THE SOLUTION 
             CONTROLS TO RESET THE CRITERION FOR ZERO HEAT FLUX.

 ITERATION SUMMARY FOR THE INCREMENT:   1 TOTAL ITERATIONS, OF WHICH
   0 ARE SEVERE DISCONTINUITY ITERATIONS AND  1 ARE EQUILIBRIUM ITERATIONS.

 TIME INCREMENT COMPLETED  1.000E+04,  FRACTION OF STEP COMPLETED  1.200E-02
 STEP TIME COMPLETED       1.200E+05,  TOTAL TIME COMPLETED        1.200E+05


  INCREMENT    13 STARTS. ATTEMPT NUMBER  1, TIME INCREMENT  1.000E+04
 
	UNSYMMETRIC NEW DIRECT SPARSE SOLVER RUNNING ON
 	1 HOST x 1 MPI RANK PER HOST x 4 THREADS PER RANK
        NUMBER OF EQUATIONS:  131150
        NUMBER OF RHS:        1
        NUMBER OF FLOPS:      2.469e+11
        SOLVER ELAPSED TIME:  1.6s

               CONVERGENCE CHECKS FOR EQUILIBRIUM ITERATION     1


 AVERAGE FORCE                      5.488E-05   TIME AVG. FORCE       1.122E+03
                                                (FROM MOMENT    FIELD)
 LARGEST SCALED RESIDUAL FORCE     -6.015E-17   AT NODE       1191   DOF  2
   INSTANCE: PLATE-1                                                                         
  CORRESPONDING RESIDUAL FORCE     -6.015E-17
 LARGEST INCREMENT OF DISP.         1.064E-08   AT NODE        960   DOF  2
   INSTANCE: PLATE-1                                                                         
 LARGEST CORRECTION TO DISP.       -2.393E-13   AT NODE       3388   DOF  2
   INSTANCE: PLATE-1                                                                         
          THERE IS ZERO FORCE     EVERYWHERE

 AVERAGE MOMENT                     2.708E-13   TIME AVG. MOMENT      1.000E-02
 LARGEST SCALED RESIDUAL MOMENT     1.230E-16   AT NODE        958   DOF  4
   INSTANCE: PLATE-1                                                                         
  CORRESPONDING RESIDUAL MOMENT     1.230E-16
 LARGEST INCREMENT OF ROTATION      9.026E-05   AT NODE        958   DOF  4
   INSTANCE: PLATE-1                                                                         
 LARGEST CORRECTION TO ROTATION     7.873E-06   AT NODE        958   DOF  4
   INSTANCE: PLATE-1                                                                         
          THERE IS ZERO MOMENT    EVERYWHERE
 

 ***WARNING: THERE IS ZERO MOMENT EVERYWHERE IN THE MODEL BASED ON THE DEFAULT 
             CRITERION. PLEASE CHECK THE VALUE OF THE AVERAGE MOMENT DURING THE 
             CURRENT ITERATION TO VERIFY THAT THE MOMENT IS SMALL ENOUGH TO BE 
             TREATED AS ZERO. IF NOT, PLEASE USE THE SOLUTION CONTROLS TO RESET 
             THE CRITERION FOR ZERO MOMENT.

 AVERAGE HEAT FLUX                  2.173E-10   TIME AVG. HEAT FLUX   1.000E-02
 LARGEST RESIDUAL HEAT FLUX        -5.064E-20   AT NODE      22121   DOF 11
   INSTANCE: PLATE-1                                                                         
 LARGEST INCREMENT OF TEMP.         4.027E-03   AT NODE        958   DOF 11
   INSTANCE: PLATE-1                                                                         
 LARGEST CORRECTION TO TEMP.        2.226E-05   AT NODE        958   DOF 11
   INSTANCE: PLATE-1                                                                         
          THERE IS ZERO HEAT FLUX EVERYWHERE
 

 ***WARNING: THERE IS ZERO HEAT FLUX EVERYWHERE IN THE MODEL BASED ON THE 
             DEFAULT CRITERION. PLEASE CHECK THE VALUE OF THE AVERAGE HEAT FLUX 
             DURING THE CURRENT ITERATION TO VERIFY THAT THE HEAT FLUX IS SMALL 
             ENOUGH TO BE TREATED AS ZERO. IF NOT, PLEASE USE THE SOLUTION 
             CONTROLS TO RESET THE CRITERION FOR ZERO HEAT FLUX.

 ITERATION SUMMARY FOR THE INCREMENT:   1 TOTAL ITERATIONS, OF WHICH
   0 ARE SEVERE DISCONTINUITY ITERATIONS AND  1 ARE EQUILIBRIUM ITERATIONS.

 TIME INCREMENT COMPLETED  1.000E+04,  FRACTION OF STEP COMPLETED  1.300E-02
 STEP TIME COMPLETED       1.300E+05,  TOTAL TIME COMPLETED        1.300E+05


  INCREMENT    14 STARTS. ATTEMPT NUMBER  1, TIME INCREMENT  1.000E+04
 
	UNSYMMETRIC NEW DIRECT SPARSE SOLVER RUNNING ON
 	1 HOST x 1 MPI RANK PER HOST x 4 THREADS PER RANK
        NUMBER OF EQUATIONS:  131150
        NUMBER OF RHS:        1
        NUMBER OF FLOPS:      2.469e+11
        SOLVER ELAPSED TIME:  1.7s

               CONVERGENCE CHECKS FOR EQUILIBRIUM ITERATION     1


 AVERAGE FORCE                      5.909E-05   TIME AVG. FORCE       1.122E+03
                                                (FROM MOMENT    FIELD)
 LARGEST SCALED RESIDUAL FORCE      6.779E-17   AT NODE       1191   DOF  2
   INSTANCE: PLATE-1                                                                         
  CORRESPONDING RESIDUAL FORCE      6.779E-17
 LARGEST INCREMENT OF DISP.         1.064E-08   AT NODE        960   DOF  2
   INSTANCE: PLATE-1                                                                         
 LARGEST CORRECTION TO DISP.       -2.619E-13   AT NODE       3388   DOF  2
   INSTANCE: PLATE-1                                                                         
          THERE IS ZERO FORCE     EVERYWHERE

 AVERAGE MOMENT                     3.179E-13   TIME AVG. MOMENT      1.000E-02
 LARGEST SCALED RESIDUAL MOMENT     1.434E-16   AT NODE        958   DOF  4
   INSTANCE: PLATE-1                                                                         
  CORRESPONDING RESIDUAL MOMENT     1.434E-16
 LARGEST INCREMENT OF ROTATION      9.814E-05   AT NODE        958   DOF  4
   INSTANCE: PLATE-1                                                                         
 LARGEST CORRECTION TO ROTATION     7.878E-06   AT NODE        958   DOF  4
   INSTANCE: PLATE-1                                                                         
          THERE IS ZERO MOMENT    EVERYWHERE
 

 ***WARNING: THERE IS ZERO MOMENT EVERYWHERE IN THE MODEL BASED ON THE DEFAULT 
             CRITERION. PLEASE CHECK THE VALUE OF THE AVERAGE MOMENT DURING THE 
             CURRENT ITERATION TO VERIFY THAT THE MOMENT IS SMALL ENOUGH TO BE 
             TREATED AS ZERO. IF NOT, PLEASE USE THE SOLUTION CONTROLS TO RESET 
             THE CRITERION FOR ZERO MOMENT.

 AVERAGE HEAT FLUX                  2.354E-10   TIME AVG. HEAT FLUX   1.000E-02
 LARGEST RESIDUAL HEAT FLUX         4.949E-20   AT NODE      21916   DOF 11
   INSTANCE: PLATE-1                                                                         
 LARGEST INCREMENT OF TEMP.         4.049E-03   AT NODE        958   DOF 11
   INSTANCE: PLATE-1                                                                         
 LARGEST CORRECTION TO TEMP.        2.228E-05   AT NODE        958   DOF 11
   INSTANCE: PLATE-1                                                                         
          THERE IS ZERO HEAT FLUX EVERYWHERE
 

 ***WARNING: THERE IS ZERO HEAT FLUX EVERYWHERE IN THE MODEL BASED ON THE 
             DEFAULT CRITERION. PLEASE CHECK THE VALUE OF THE AVERAGE HEAT FLUX 
             DURING THE CURRENT ITERATION TO VERIFY THAT THE HEAT FLUX IS SMALL 
             ENOUGH TO BE TREATED AS ZERO. IF NOT, PLEASE USE THE SOLUTION 
             CONTROLS TO RESET THE CRITERION FOR ZERO HEAT FLUX.

 ITERATION SUMMARY FOR THE INCREMENT:   1 TOTAL ITERATIONS, OF WHICH
   0 ARE SEVERE DISCONTINUITY ITERATIONS AND  1 ARE EQUILIBRIUM ITERATIONS.

 TIME INCREMENT COMPLETED  1.000E+04,  FRACTION OF STEP COMPLETED  1.400E-02
 STEP TIME COMPLETED       1.400E+05,  TOTAL TIME COMPLETED        1.400E+05


  INCREMENT    15 STARTS. ATTEMPT NUMBER  1, TIME INCREMENT  1.000E+04
 
	UNSYMMETRIC NEW DIRECT SPARSE SOLVER RUNNING ON
 	1 HOST x 1 MPI RANK PER HOST x 4 THREADS PER RANK
        NUMBER OF EQUATIONS:  131150
        NUMBER OF RHS:        1
        NUMBER OF FLOPS:      2.469e+11
        SOLVER ELAPSED TIME:  1.7s

               CONVERGENCE CHECKS FOR EQUILIBRIUM ITERATION     1


 AVERAGE FORCE                      6.331E-05   TIME AVG. FORCE       1.122E+03
                                                (FROM MOMENT    FIELD)
 LARGEST SCALED RESIDUAL FORCE      5.036E-17   AT NODE        671   DOF  2
   INSTANCE: PLATE-1                                                                         
  CORRESPONDING RESIDUAL FORCE      5.036E-17
 LARGEST INCREMENT OF DISP.         1.064E-08   AT NODE        960   DOF  2
   INSTANCE: PLATE-1                                                                         
 LARGEST CORRECTION TO DISP.       -2.846E-13   AT NODE       3388   DOF  2
   INSTANCE: PLATE-1                                                                         
          THERE IS ZERO FORCE     EVERYWHERE

 AVERAGE MOMENT                     3.687E-13   TIME AVG. MOMENT      1.000E-02
 LARGEST SCALED RESIDUAL MOMENT     1.652E-16   AT NODE        958   DOF  4
   INSTANCE: PLATE-1                                                                         
  CORRESPONDING RESIDUAL MOMENT     1.652E-16
 LARGEST INCREMENT OF ROTATION      1.060E-04   AT NODE        958   DOF  4
   INSTANCE: PLATE-1                                                                         
 LARGEST CORRECTION TO ROTATION     7.883E-06   AT NODE        958   DOF  4
   INSTANCE: PLATE-1                                                                         
          THERE IS ZERO MOMENT    EVERYWHERE
 

 ***WARNING: THERE IS ZERO MOMENT EVERYWHERE IN THE MODEL BASED ON THE DEFAULT 
             CRITERION. PLEASE CHECK THE VALUE OF THE AVERAGE MOMENT DURING THE 
             CURRENT ITERATION TO VERIFY THAT THE MOMENT IS SMALL ENOUGH TO BE 
             TREATED AS ZERO. IF NOT, PLEASE USE THE SOLUTION CONTROLS TO RESET 
             THE CRITERION FOR ZERO MOMENT.

 AVERAGE HEAT FLUX                  2.536E-10   TIME AVG. HEAT FLUX   1.000E-02
 LARGEST RESIDUAL HEAT FLUX         4.741E-20   AT NODE      23974   DOF 11
   INSTANCE: PLATE-1                                                                         
 LARGEST INCREMENT OF TEMP.         4.071E-03   AT NODE        958   DOF 11
   INSTANCE: PLATE-1                                                                         
 LARGEST CORRECTION TO TEMP.        2.231E-05   AT NODE        958   DOF 11
   INSTANCE: PLATE-1                                                                         
          THERE IS ZERO HEAT FLUX EVERYWHERE
 

 ***WARNING: THERE IS ZERO HEAT FLUX EVERYWHERE IN THE MODEL BASED ON THE 
             DEFAULT CRITERION. PLEASE CHECK THE VALUE OF THE AVERAGE HEAT FLUX 
             DURING THE CURRENT ITERATION TO VERIFY THAT THE HEAT FLUX IS SMALL 
             ENOUGH TO BE TREATED AS ZERO. IF NOT, PLEASE USE THE SOLUTION 
             CONTROLS TO RESET THE CRITERION FOR ZERO HEAT FLUX.

 ITERATION SUMMARY FOR THE INCREMENT:   1 TOTAL ITERATIONS, OF WHICH
   0 ARE SEVERE DISCONTINUITY ITERATIONS AND  1 ARE EQUILIBRIUM ITERATIONS.

 TIME INCREMENT COMPLETED  1.000E+04,  FRACTION OF STEP COMPLETED  1.500E-02
 STEP TIME COMPLETED       1.500E+05,  TOTAL TIME COMPLETED        1.500E+05


  INCREMENT    16 STARTS. ATTEMPT NUMBER  1, TIME INCREMENT  1.000E+04
 
	UNSYMMETRIC NEW DIRECT SPARSE SOLVER RUNNING ON
 	1 HOST x 1 MPI RANK PER HOST x 4 THREADS PER RANK
        NUMBER OF EQUATIONS:  131150
        NUMBER OF RHS:        1
        NUMBER OF FLOPS:      2.469e+11
        SOLVER ELAPSED TIME:  2.0s

               CONVERGENCE CHECKS FOR EQUILIBRIUM ITERATION     1


 AVERAGE FORCE                      6.752E-05   TIME AVG. FORCE       1.122E+03
                                                (FROM MOMENT    FIELD)
 LARGEST SCALED RESIDUAL FORCE      5.800E-17   AT NODE        715   DOF  2
   INSTANCE: PLATE-1                                                                         
  CORRESPONDING RESIDUAL FORCE      5.800E-17
 LARGEST INCREMENT OF DISP.         1.064E-08   AT NODE        960   DOF  2
   INSTANCE: PLATE-1                                                                         
 LARGEST CORRECTION TO DISP.       -3.073E-13   AT NODE       3388   DOF  2
   INSTANCE: PLATE-1                                                                         
          THERE IS ZERO FORCE     EVERYWHERE

 AVERAGE MOMENT                     4.233E-13   TIME AVG. MOMENT      1.000E-02
 LARGEST SCALED RESIDUAL MOMENT     1.884E-16   AT NODE        958   DOF  4
   INSTANCE: PLATE-1                                                                         
  CORRESPONDING RESIDUAL MOMENT     1.884E-16
 LARGEST INCREMENT OF ROTATION      1.139E-04   AT NODE        958   DOF  4
   INSTANCE: PLATE-1                                                                         
 LARGEST CORRECTION TO ROTATION     7.889E-06   AT NODE        958   DOF  4
   INSTANCE: PLATE-1                                                                         
          THERE IS ZERO MOMENT    EVERYWHERE
 

 ***WARNING: THERE IS ZERO MOMENT EVERYWHERE IN THE MODEL BASED ON THE DEFAULT 
             CRITERION. PLEASE CHECK THE VALUE OF THE AVERAGE MOMENT DURING THE 
             CURRENT ITERATION TO VERIFY THAT THE MOMENT IS SMALL ENOUGH TO BE 
             TREATED AS ZERO. IF NOT, PLEASE USE THE SOLUTION CONTROLS TO RESET 
             THE CRITERION FOR ZERO MOMENT.

 AVERAGE HEAT FLUX                  2.717E-10   TIME AVG. HEAT FLUX   1.000E-02
 LARGEST RESIDUAL HEAT FLUX        -3.747E-20   AT NODE       4559   DOF 11
   INSTANCE: PLATE-1                                                                         
 LARGEST INCREMENT OF TEMP.         4.094E-03   AT NODE        958   DOF 11
   INSTANCE: PLATE-1                                                                         
 LARGEST CORRECTION TO TEMP.        2.233E-05   AT NODE        958   DOF 11
   INSTANCE: PLATE-1                                                                         
          THERE IS ZERO HEAT FLUX EVERYWHERE
 

 ***WARNING: THERE IS ZERO HEAT FLUX EVERYWHERE IN THE MODEL BASED ON THE 
             DEFAULT CRITERION. PLEASE CHECK THE VALUE OF THE AVERAGE HEAT FLUX 
             DURING THE CURRENT ITERATION TO VERIFY THAT THE HEAT FLUX IS SMALL 
             ENOUGH TO BE TREATED AS ZERO. IF NOT, PLEASE USE THE SOLUTION 
             CONTROLS TO RESET THE CRITERION FOR ZERO HEAT FLUX.

 ITERATION SUMMARY FOR THE INCREMENT:   1 TOTAL ITERATIONS, OF WHICH
   0 ARE SEVERE DISCONTINUITY ITERATIONS AND  1 ARE EQUILIBRIUM ITERATIONS.

 TIME INCREMENT COMPLETED  1.000E+04,  FRACTION OF STEP COMPLETED  1.600E-02
 STEP TIME COMPLETED       1.600E+05,  TOTAL TIME COMPLETED        1.600E+05


  INCREMENT    17 STARTS. ATTEMPT NUMBER  1, TIME INCREMENT  1.000E+04
 
	UNSYMMETRIC NEW DIRECT SPARSE SOLVER RUNNING ON
 	1 HOST x 1 MPI RANK PER HOST x 4 THREADS PER RANK
        NUMBER OF EQUATIONS:  131150
        NUMBER OF RHS:        1
        NUMBER OF FLOPS:      2.469e+11
        SOLVER ELAPSED TIME:  2.3s

               CONVERGENCE CHECKS FOR EQUILIBRIUM ITERATION     1


 AVERAGE FORCE                      7.174E-05   TIME AVG. FORCE       1.122E+03
                                                (FROM MOMENT    FIELD)
 LARGEST SCALED RESIDUAL FORCE     -6.866E-17   AT NODE        665   DOF  2
   INSTANCE: PLATE-1                                                                         
  CORRESPONDING RESIDUAL FORCE     -6.866E-17
 LARGEST INCREMENT OF DISP.         1.064E-08   AT NODE        960   DOF  2
   INSTANCE: PLATE-1                                                                         
 LARGEST CORRECTION TO DISP.       -3.300E-13   AT NODE       3388   DOF  2
   INSTANCE: PLATE-1                                                                         
          THERE IS ZERO FORCE     EVERYWHERE

 AVERAGE MOMENT                     4.817E-13   TIME AVG. MOMENT      1.000E-02
 LARGEST SCALED RESIDUAL MOMENT     2.129E-16   AT NODE        958   DOF  4
   INSTANCE: PLATE-1                                                                         
  CORRESPONDING RESIDUAL MOMENT     2.129E-16
 LARGEST INCREMENT OF ROTATION      1.218E-04   AT NODE        958   DOF  4
   INSTANCE: PLATE-1                                                                         
 LARGEST CORRECTION TO ROTATION     7.894E-06   AT NODE        958   DOF  4
   INSTANCE: PLATE-1                                                                         
          THERE IS ZERO MOMENT    EVERYWHERE
 

 ***WARNING: THERE IS ZERO MOMENT EVERYWHERE IN THE MODEL BASED ON THE DEFAULT 
             CRITERION. PLEASE CHECK THE VALUE OF THE AVERAGE MOMENT DURING THE 
             CURRENT ITERATION TO VERIFY THAT THE MOMENT IS SMALL ENOUGH TO BE 
             TREATED AS ZERO. IF NOT, PLEASE USE THE SOLUTION CONTROLS TO RESET 
             THE CRITERION FOR ZERO MOMENT.

 AVERAGE HEAT FLUX                  2.899E-10   TIME AVG. HEAT FLUX   1.000E-02
 LARGEST RESIDUAL HEAT FLUX        -5.868E-20   AT NODE      22121   DOF 11
   INSTANCE: PLATE-1                                                                         
 LARGEST INCREMENT OF TEMP.         4.116E-03   AT NODE        958   DOF 11
   INSTANCE: PLATE-1                                                                         
 LARGEST CORRECTION TO TEMP.        2.235E-05   AT NODE        958   DOF 11
   INSTANCE: PLATE-1                                                                         
          THERE IS ZERO HEAT FLUX EVERYWHERE
 

 ***WARNING: THERE IS ZERO HEAT FLUX EVERYWHERE IN THE MODEL BASED ON THE 
             DEFAULT CRITERION. PLEASE CHECK THE VALUE OF THE AVERAGE HEAT FLUX 
             DURING THE CURRENT ITERATION TO VERIFY THAT THE HEAT FLUX IS SMALL 
             ENOUGH TO BE TREATED AS ZERO. IF NOT, PLEASE USE THE SOLUTION 
             CONTROLS TO RESET THE CRITERION FOR ZERO HEAT FLUX.

 ITERATION SUMMARY FOR THE INCREMENT:   1 TOTAL ITERATIONS, OF WHICH
   0 ARE SEVERE DISCONTINUITY ITERATIONS AND  1 ARE EQUILIBRIUM ITERATIONS.

 TIME INCREMENT COMPLETED  1.000E+04,  FRACTION OF STEP COMPLETED  1.700E-02
 STEP TIME COMPLETED       1.700E+05,  TOTAL TIME COMPLETED        1.700E+05


  INCREMENT    18 STARTS. ATTEMPT NUMBER  1, TIME INCREMENT  1.000E+04
 
	UNSYMMETRIC NEW DIRECT SPARSE SOLVER RUNNING ON
 	1 HOST x 1 MPI RANK PER HOST x 4 THREADS PER RANK
        NUMBER OF EQUATIONS:  131150
        NUMBER OF RHS:        1
        NUMBER OF FLOPS:      2.469e+11
        SOLVER ELAPSED TIME:  2.4s

               CONVERGENCE CHECKS FOR EQUILIBRIUM ITERATION     1


 AVERAGE FORCE                      7.595E-05   TIME AVG. FORCE       1.122E+03
                                                (FROM MOMENT    FIELD)
 LARGEST SCALED RESIDUAL FORCE     -5.297E-17   AT NODE       1585   DOF  2
   INSTANCE: PLATE-1                                                                         
  CORRESPONDING RESIDUAL FORCE     -5.297E-17
 LARGEST INCREMENT OF DISP.         1.064E-08   AT NODE        960   DOF  2
   INSTANCE: PLATE-1                                                                         
 LARGEST CORRECTION TO DISP.       -3.528E-13   AT NODE       3388   DOF  2
   INSTANCE: PLATE-1                                                                         
          THERE IS ZERO FORCE     EVERYWHERE

 AVERAGE MOMENT                     5.439E-13   TIME AVG. MOMENT      1.000E-02
 LARGEST SCALED RESIDUAL MOMENT     2.387E-16   AT NODE        958   DOF  4
   INSTANCE: PLATE-1                                                                         
  CORRESPONDING RESIDUAL MOMENT     2.387E-16
 LARGEST INCREMENT OF ROTATION      1.297E-04   AT NODE        958   DOF  4
   INSTANCE: PLATE-1                                                                         
 LARGEST CORRECTION TO ROTATION     7.900E-06   AT NODE        958   DOF  4
   INSTANCE: PLATE-1                                                                         
          THERE IS ZERO MOMENT    EVERYWHERE
 

 ***WARNING: THERE IS ZERO MOMENT EVERYWHERE IN THE MODEL BASED ON THE DEFAULT 
             CRITERION. PLEASE CHECK THE VALUE OF THE AVERAGE MOMENT DURING THE 
             CURRENT ITERATION TO VERIFY THAT THE MOMENT IS SMALL ENOUGH TO BE 
             TREATED AS ZERO. IF NOT, PLEASE USE THE SOLUTION CONTROLS TO RESET 
             THE CRITERION FOR ZERO MOMENT.

 AVERAGE HEAT FLUX                  3.081E-10   TIME AVG. HEAT FLUX   1.000E-02
 LARGEST RESIDUAL HEAT FLUX         4.490E-20   AT NODE      21916   DOF 11
   INSTANCE: PLATE-1                                                                         
 LARGEST INCREMENT OF TEMP.         4.139E-03   AT NODE        958   DOF 11
   INSTANCE: PLATE-1                                                                         
 LARGEST CORRECTION TO TEMP.        2.237E-05   AT NODE        958   DOF 11
   INSTANCE: PLATE-1                                                                         
          THERE IS ZERO HEAT FLUX EVERYWHERE
 

 ***WARNING: THERE IS ZERO HEAT FLUX EVERYWHERE IN THE MODEL BASED ON THE 
             DEFAULT CRITERION. PLEASE CHECK THE VALUE OF THE AVERAGE HEAT FLUX 
             DURING THE CURRENT ITERATION TO VERIFY THAT THE HEAT FLUX IS SMALL 
             ENOUGH TO BE TREATED AS ZERO. IF NOT, PLEASE USE THE SOLUTION 
             CONTROLS TO RESET THE CRITERION FOR ZERO HEAT FLUX.

 ITERATION SUMMARY FOR THE INCREMENT:   1 TOTAL ITERATIONS, OF WHICH
   0 ARE SEVERE DISCONTINUITY ITERATIONS AND  1 ARE EQUILIBRIUM ITERATIONS.

 TIME INCREMENT COMPLETED  1.000E+04,  FRACTION OF STEP COMPLETED  1.800E-02
 STEP TIME COMPLETED       1.800E+05,  TOTAL TIME COMPLETED        1.800E+05


  INCREMENT    19 STARTS. ATTEMPT NUMBER  1, TIME INCREMENT  1.000E+04
 
	UNSYMMETRIC NEW DIRECT SPARSE SOLVER RUNNING ON
 	1 HOST x 1 MPI RANK PER HOST x 4 THREADS PER RANK
        NUMBER OF EQUATIONS:  131150
        NUMBER OF RHS:        1
        NUMBER OF FLOPS:      2.469e+11
        SOLVER ELAPSED TIME:  1.7s

               CONVERGENCE CHECKS FOR EQUILIBRIUM ITERATION     1


 AVERAGE FORCE                      8.016E-05   TIME AVG. FORCE       1.122E+03
                                                (FROM MOMENT    FIELD)
 LARGEST SCALED RESIDUAL FORCE      6.230E-17   AT NODE        715   DOF  2
   INSTANCE: PLATE-1                                                                         
  CORRESPONDING RESIDUAL FORCE      6.230E-17
 LARGEST INCREMENT OF DISP.         1.064E-08   AT NODE        960   DOF  2
   INSTANCE: PLATE-1                                                                         
 LARGEST CORRECTION TO DISP.       -3.756E-13   AT NODE       3388   DOF  2
   INSTANCE: PLATE-1                                                                         
          THERE IS ZERO FORCE     EVERYWHERE

 AVERAGE MOMENT                     6.099E-13   TIME AVG. MOMENT      1.000E-02
 LARGEST SCALED RESIDUAL MOMENT     2.658E-16   AT NODE        958   DOF  4
   INSTANCE: PLATE-1                                                                         
  CORRESPONDING RESIDUAL MOMENT     2.658E-16
 LARGEST INCREMENT OF ROTATION      1.376E-04   AT NODE        958   DOF  4
   INSTANCE: PLATE-1                                                                         
 LARGEST CORRECTION TO ROTATION     7.905E-06   AT NODE        958   DOF  4
   INSTANCE: PLATE-1                                                                         
          THERE IS ZERO MOMENT    EVERYWHERE
 

 ***WARNING: THERE IS ZERO MOMENT EVERYWHERE IN THE MODEL BASED ON THE DEFAULT 
             CRITERION. PLEASE CHECK THE VALUE OF THE AVERAGE MOMENT DURING THE 
             CURRENT ITERATION TO VERIFY THAT THE MOMENT IS SMALL ENOUGH TO BE 
             TREATED AS ZERO. IF NOT, PLEASE USE THE SOLUTION CONTROLS TO RESET 
             THE CRITERION FOR ZERO MOMENT.

 AVERAGE HEAT FLUX                  3.262E-10   TIME AVG. HEAT FLUX   1.000E-02
 LARGEST RESIDUAL HEAT FLUX        -4.540E-20   AT NODE      24020   DOF 11
   INSTANCE: PLATE-1                                                                         
 LARGEST INCREMENT OF TEMP.         4.161E-03   AT NODE        958   DOF 11
   INSTANCE: PLATE-1                                                                         
 LARGEST CORRECTION TO TEMP.        2.238E-05   AT NODE        958   DOF 11
   INSTANCE: PLATE-1                                                                         
          THERE IS ZERO HEAT FLUX EVERYWHERE
 

 ***WARNING: THERE IS ZERO HEAT FLUX EVERYWHERE IN THE MODEL BASED ON THE 
             DEFAULT CRITERION. PLEASE CHECK THE VALUE OF THE AVERAGE HEAT FLUX 
             DURING THE CURRENT ITERATION TO VERIFY THAT THE HEAT FLUX IS SMALL 
             ENOUGH TO BE TREATED AS ZERO. IF NOT, PLEASE USE THE SOLUTION 
             CONTROLS TO RESET THE CRITERION FOR ZERO HEAT FLUX.

 ITERATION SUMMARY FOR THE INCREMENT:   1 TOTAL ITERATIONS, OF WHICH
   0 ARE SEVERE DISCONTINUITY ITERATIONS AND  1 ARE EQUILIBRIUM ITERATIONS.

 TIME INCREMENT COMPLETED  1.000E+04,  FRACTION OF STEP COMPLETED  1.900E-02
 STEP TIME COMPLETED       1.900E+05,  TOTAL TIME COMPLETED        1.900E+05


  INCREMENT    20 STARTS. ATTEMPT NUMBER  1, TIME INCREMENT  1.000E+04
 
	UNSYMMETRIC NEW DIRECT SPARSE SOLVER RUNNING ON
 	1 HOST x 1 MPI RANK PER HOST x 4 THREADS PER RANK
        NUMBER OF EQUATIONS:  131150
        NUMBER OF RHS:        1
        NUMBER OF FLOPS:      2.469e+11
        SOLVER ELAPSED TIME:  1.8s

               CONVERGENCE CHECKS FOR EQUILIBRIUM ITERATION     1


 AVERAGE FORCE                      8.437E-05   TIME AVG. FORCE       1.122E+03
                                                (FROM MOMENT    FIELD)
 LARGEST SCALED RESIDUAL FORCE     -5.107E-17   AT NODE        625   DOF  2
   INSTANCE: PLATE-1                                                                         
  CORRESPONDING RESIDUAL FORCE     -5.107E-17
 LARGEST INCREMENT OF DISP.         1.064E-08   AT NODE        960   DOF  2
   INSTANCE: PLATE-1                                                                         
 LARGEST CORRECTION TO DISP.       -3.985E-13   AT NODE       3388   DOF  2
   INSTANCE: PLATE-1                                                                         
          THERE IS ZERO FORCE     EVERYWHERE

 AVERAGE MOMENT                     6.797E-13   TIME AVG. MOMENT      1.000E-02
 LARGEST SCALED RESIDUAL MOMENT     2.941E-16   AT NODE        958   DOF  4
   INSTANCE: PLATE-1                                                                         
  CORRESPONDING RESIDUAL MOMENT     2.941E-16
 LARGEST INCREMENT OF ROTATION      1.455E-04   AT NODE        958   DOF  4
   INSTANCE: PLATE-1                                                                         
 LARGEST CORRECTION TO ROTATION     7.911E-06   AT NODE        958   DOF  4
   INSTANCE: PLATE-1                                                                         
          THERE IS ZERO MOMENT    EVERYWHERE
 

 ***WARNING: THERE IS ZERO MOMENT EVERYWHERE IN THE MODEL BASED ON THE DEFAULT 
             CRITERION. PLEASE CHECK THE VALUE OF THE AVERAGE MOMENT DURING THE 
             CURRENT ITERATION TO VERIFY THAT THE MOMENT IS SMALL ENOUGH TO BE 
             TREATED AS ZERO. IF NOT, PLEASE USE THE SOLUTION CONTROLS TO RESET 
             THE CRITERION FOR ZERO MOMENT.

 AVERAGE HEAT FLUX                  3.444E-10   TIME AVG. HEAT FLUX   1.000E-02
 LARGEST RESIDUAL HEAT FLUX         4.453E-20   AT NODE      22129   DOF 11
   INSTANCE: PLATE-1                                                                         
 LARGEST INCREMENT OF TEMP.         4.183E-03   AT NODE        958   DOF 11
   INSTANCE: PLATE-1                                                                         
 LARGEST CORRECTION TO TEMP.        2.240E-05   AT NODE        958   DOF 11
   INSTANCE: PLATE-1                                                                         
          THERE IS ZERO HEAT FLUX EVERYWHERE
 

 ***WARNING: THERE IS ZERO HEAT FLUX EVERYWHERE IN THE MODEL BASED ON THE 
             DEFAULT CRITERION. PLEASE CHECK THE VALUE OF THE AVERAGE HEAT FLUX 
             DURING THE CURRENT ITERATION TO VERIFY THAT THE HEAT FLUX IS SMALL 
             ENOUGH TO BE TREATED AS ZERO. IF NOT, PLEASE USE THE SOLUTION 
             CONTROLS TO RESET THE CRITERION FOR ZERO HEAT FLUX.

 ITERATION SUMMARY FOR THE INCREMENT:   1 TOTAL ITERATIONS, OF WHICH
   0 ARE SEVERE DISCONTINUITY ITERATIONS AND  1 ARE EQUILIBRIUM ITERATIONS.

 TIME INCREMENT COMPLETED  1.000E+04,  FRACTION OF STEP COMPLETED  2.000E-02
 STEP TIME COMPLETED       2.000E+05,  TOTAL TIME COMPLETED        2.000E+05


  INCREMENT    21 STARTS. ATTEMPT NUMBER  1, TIME INCREMENT  1.000E+04
 
	UNSYMMETRIC NEW DIRECT SPARSE SOLVER RUNNING ON
 	1 HOST x 1 MPI RANK PER HOST x 4 THREADS PER RANK
        NUMBER OF EQUATIONS:  131150
        NUMBER OF RHS:        1
        NUMBER OF FLOPS:      2.469e+11
        SOLVER ELAPSED TIME:  1.9s

               CONVERGENCE CHECKS FOR EQUILIBRIUM ITERATION     1


 AVERAGE FORCE                      8.858E-05   TIME AVG. FORCE       1.122E+03
                                                (FROM MOMENT    FIELD)
 LARGEST SCALED RESIDUAL FORCE      6.451E-17   AT NODE       1108   DOF  2
   INSTANCE: PLATE-1                                                                         
  CORRESPONDING RESIDUAL FORCE      6.451E-17
 LARGEST INCREMENT OF DISP.         1.064E-08   AT NODE        960   DOF  2
   INSTANCE: PLATE-1                                                                         
 LARGEST CORRECTION TO DISP.       -4.214E-13   AT NODE       3388   DOF  2
   INSTANCE: PLATE-1                                                                         
          THERE IS ZERO FORCE     EVERYWHERE

 AVERAGE MOMENT                     7.532E-13   TIME AVG. MOMENT      1.000E-02
 LARGEST SCALED RESIDUAL MOMENT     3.235E-16   AT NODE        958   DOF  4
   INSTANCE: PLATE-1                                                                         
  CORRESPONDING RESIDUAL MOMENT     3.235E-16
 LARGEST INCREMENT OF ROTATION      1.534E-04   AT NODE        958   DOF  4
   INSTANCE: PLATE-1                                                                         
 LARGEST CORRECTION TO ROTATION     7.917E-06   AT NODE        958   DOF  4
   INSTANCE: PLATE-1                                                                         
          THERE IS ZERO MOMENT    EVERYWHERE
 

 ***WARNING: THERE IS ZERO MOMENT EVERYWHERE IN THE MODEL BASED ON THE DEFAULT 
             CRITERION. PLEASE CHECK THE VALUE OF THE AVERAGE MOMENT DURING THE 
             CURRENT ITERATION TO VERIFY THAT THE MOMENT IS SMALL ENOUGH TO BE 
             TREATED AS ZERO. IF NOT, PLEASE USE THE SOLUTION CONTROLS TO RESET 
             THE CRITERION FOR ZERO MOMENT.

 AVERAGE HEAT FLUX                  3.626E-10   TIME AVG. HEAT FLUX   1.000E-02
 LARGEST RESIDUAL HEAT FLUX        -4.014E-20   AT NODE      22122   DOF 11
   INSTANCE: PLATE-1                                                                         
 LARGEST INCREMENT OF TEMP.         4.206E-03   AT NODE        958   DOF 11
   INSTANCE: PLATE-1                                                                         
 LARGEST CORRECTION TO TEMP.        2.241E-05   AT NODE        958   DOF 11
   INSTANCE: PLATE-1                                                                         
          THERE IS ZERO HEAT FLUX EVERYWHERE
 

 ***WARNING: THERE IS ZERO HEAT FLUX EVERYWHERE IN THE MODEL BASED ON THE 
             DEFAULT CRITERION. PLEASE CHECK THE VALUE OF THE AVERAGE HEAT FLUX 
             DURING THE CURRENT ITERATION TO VERIFY THAT THE HEAT FLUX IS SMALL 
             ENOUGH TO BE TREATED AS ZERO. IF NOT, PLEASE USE THE SOLUTION 
             CONTROLS TO RESET THE CRITERION FOR ZERO HEAT FLUX.

 ITERATION SUMMARY FOR THE INCREMENT:   1 TOTAL ITERATIONS, OF WHICH
   0 ARE SEVERE DISCONTINUITY ITERATIONS AND  1 ARE EQUILIBRIUM ITERATIONS.

 TIME INCREMENT COMPLETED  1.000E+04,  FRACTION OF STEP COMPLETED  2.100E-02
 STEP TIME COMPLETED       2.100E+05,  TOTAL TIME COMPLETED        2.100E+05


  INCREMENT    22 STARTS. ATTEMPT NUMBER  1, TIME INCREMENT  1.000E+04
 
	UNSYMMETRIC NEW DIRECT SPARSE SOLVER RUNNING ON
 	1 HOST x 1 MPI RANK PER HOST x 4 THREADS PER RANK
        NUMBER OF EQUATIONS:  131150
        NUMBER OF RHS:        1
        NUMBER OF FLOPS:      2.469e+11
        SOLVER ELAPSED TIME:  1.9s

               CONVERGENCE CHECKS FOR EQUILIBRIUM ITERATION     1


 AVERAGE FORCE                      9.279E-05   TIME AVG. FORCE       1.122E+03
                                                (FROM MOMENT    FIELD)
 LARGEST SCALED RESIDUAL FORCE     -6.158E-17   AT NODE       1108   DOF  2
   INSTANCE: PLATE-1                                                                         
  CORRESPONDING RESIDUAL FORCE     -6.158E-17
 LARGEST INCREMENT OF DISP.         1.064E-08   AT NODE        960   DOF  2
   INSTANCE: PLATE-1                                                                         
 LARGEST CORRECTION TO DISP.       -4.444E-13   AT NODE       3388   DOF  2
   INSTANCE: PLATE-1                                                                         
          THERE IS ZERO FORCE     EVERYWHERE

 AVERAGE MOMENT                     8.306E-13   TIME AVG. MOMENT      1.000E-02
 LARGEST SCALED RESIDUAL MOMENT     3.541E-16   AT NODE        958   DOF  4
   INSTANCE: PLATE-1                                                                         
  CORRESPONDING RESIDUAL MOMENT     3.541E-16
 LARGEST INCREMENT OF ROTATION      1.614E-04   AT NODE        958   DOF  4
   INSTANCE: PLATE-1                                                                         
 LARGEST CORRECTION TO ROTATION     7.923E-06   AT NODE        958   DOF  4
   INSTANCE: PLATE-1                                                                         
          THERE IS ZERO MOMENT    EVERYWHERE
 

 ***WARNING: THERE IS ZERO MOMENT EVERYWHERE IN THE MODEL BASED ON THE DEFAULT 
             CRITERION. PLEASE CHECK THE VALUE OF THE AVERAGE MOMENT DURING THE 
             CURRENT ITERATION TO VERIFY THAT THE MOMENT IS SMALL ENOUGH TO BE 
             TREATED AS ZERO. IF NOT, PLEASE USE THE SOLUTION CONTROLS TO RESET 
             THE CRITERION FOR ZERO MOMENT.

 AVERAGE HEAT FLUX                  3.807E-10   TIME AVG. HEAT FLUX   1.000E-02
 LARGEST RESIDUAL HEAT FLUX        -4.004E-20   AT NODE       4426   DOF 11
   INSTANCE: PLATE-1                                                                         
 LARGEST INCREMENT OF TEMP.         4.228E-03   AT NODE        958   DOF 11
   INSTANCE: PLATE-1                                                                         
 LARGEST CORRECTION TO TEMP.        2.242E-05   AT NODE        958   DOF 11
   INSTANCE: PLATE-1                                                                         
          THERE IS ZERO HEAT FLUX EVERYWHERE
 

 ***WARNING: THERE IS ZERO HEAT FLUX EVERYWHERE IN THE MODEL BASED ON THE 
             DEFAULT CRITERION. PLEASE CHECK THE VALUE OF THE AVERAGE HEAT FLUX 
             DURING THE CURRENT ITERATION TO VERIFY THAT THE HEAT FLUX IS SMALL 
             ENOUGH TO BE TREATED AS ZERO. IF NOT, PLEASE USE THE SOLUTION 
             CONTROLS TO RESET THE CRITERION FOR ZERO HEAT FLUX.

 ITERATION SUMMARY FOR THE INCREMENT:   1 TOTAL ITERATIONS, OF WHICH
   0 ARE SEVERE DISCONTINUITY ITERATIONS AND  1 ARE EQUILIBRIUM ITERATIONS.

 TIME INCREMENT COMPLETED  1.000E+04,  FRACTION OF STEP COMPLETED  2.200E-02
 STEP TIME COMPLETED       2.200E+05,  TOTAL TIME COMPLETED        2.200E+05


  INCREMENT    23 STARTS. ATTEMPT NUMBER  1, TIME INCREMENT  1.000E+04
 
	UNSYMMETRIC NEW DIRECT SPARSE SOLVER RUNNING ON
 	1 HOST x 1 MPI RANK PER HOST x 4 THREADS PER RANK
        NUMBER OF EQUATIONS:  131150
        NUMBER OF RHS:        1
        NUMBER OF FLOPS:      2.469e+11
        SOLVER ELAPSED TIME:  1.8s

               CONVERGENCE CHECKS FOR EQUILIBRIUM ITERATION     1


 AVERAGE FORCE                      9.699E-05   TIME AVG. FORCE       1.122E+03
                                                (FROM MOMENT    FIELD)
 LARGEST SCALED RESIDUAL FORCE      6.305E-17   AT NODE       1582   DOF  2
   INSTANCE: PLATE-1                                                                         
  CORRESPONDING RESIDUAL FORCE      6.305E-17
 LARGEST INCREMENT OF DISP.         1.064E-08   AT NODE        960   DOF  2
   INSTANCE: PLATE-1                                                                         
 LARGEST CORRECTION TO DISP.       -4.674E-13   AT NODE       3388   DOF  2
   INSTANCE: PLATE-1                                                                         
          THERE IS ZERO FORCE     EVERYWHERE

 AVERAGE MOMENT                     9.117E-13   TIME AVG. MOMENT      1.000E-02
 LARGEST SCALED RESIDUAL MOMENT     3.858E-16   AT NODE        958   DOF  4
   INSTANCE: PLATE-1                                                                         
  CORRESPONDING RESIDUAL MOMENT     3.858E-16
 LARGEST INCREMENT OF ROTATION      1.693E-04   AT NODE        958   DOF  4
   INSTANCE: PLATE-1                                                                         
 LARGEST CORRECTION TO ROTATION     7.929E-06   AT NODE        958   DOF  4
   INSTANCE: PLATE-1                                                                         
          THERE IS ZERO MOMENT    EVERYWHERE
 

 ***WARNING: THERE IS ZERO MOMENT EVERYWHERE IN THE MODEL BASED ON THE DEFAULT 
             CRITERION. PLEASE CHECK THE VALUE OF THE AVERAGE MOMENT DURING THE 
             CURRENT ITERATION TO VERIFY THAT THE MOMENT IS SMALL ENOUGH TO BE 
             TREATED AS ZERO. IF NOT, PLEASE USE THE SOLUTION CONTROLS TO RESET 
             THE CRITERION FOR ZERO MOMENT.

 AVERAGE HEAT FLUX                  3.989E-10   TIME AVG. HEAT FLUX   1.000E-02
 LARGEST RESIDUAL HEAT FLUX        -5.057E-20   AT NODE       3779   DOF 11
   INSTANCE: PLATE-1                                                                         
 LARGEST INCREMENT OF TEMP.         4.251E-03   AT NODE        958   DOF 11
   INSTANCE: PLATE-1                                                                         
 LARGEST CORRECTION TO TEMP.        2.243E-05   AT NODE        958   DOF 11
   INSTANCE: PLATE-1                                                                         
          THERE IS ZERO HEAT FLUX EVERYWHERE
 

 ***WARNING: THERE IS ZERO HEAT FLUX EVERYWHERE IN THE MODEL BASED ON THE 
             DEFAULT CRITERION. PLEASE CHECK THE VALUE OF THE AVERAGE HEAT FLUX 
             DURING THE CURRENT ITERATION TO VERIFY THAT THE HEAT FLUX IS SMALL 
             ENOUGH TO BE TREATED AS ZERO. IF NOT, PLEASE USE THE SOLUTION 
             CONTROLS TO RESET THE CRITERION FOR ZERO HEAT FLUX.

 ITERATION SUMMARY FOR THE INCREMENT:   1 TOTAL ITERATIONS, OF WHICH
   0 ARE SEVERE DISCONTINUITY ITERATIONS AND  1 ARE EQUILIBRIUM ITERATIONS.

 TIME INCREMENT COMPLETED  1.000E+04,  FRACTION OF STEP COMPLETED  2.300E-02
 STEP TIME COMPLETED       2.300E+05,  TOTAL TIME COMPLETED        2.300E+05


  INCREMENT    24 STARTS. ATTEMPT NUMBER  1, TIME INCREMENT  1.000E+04
