*Heading
** Job name: phase_field_plate_3D Model name: Model-3D-m
** Generated by: Abaqus/CAE 2023.HF4
*Preprint, echo=NO, model=NO, history=NO, contact=NO
**
** PARTS
**
*Part, name=plate
*Node
      1, -1.02445483e-11, 0.000500000024, 1.99999995e-05
      2,           0.,           0., 1.99999995e-05
      3, -0.000500000024, 0.000500000024, 1.99999995e-05
      4, -0.000500000024, 4.99999987e-06, 1.99999995e-05
      5, -8.63070379e-12, 0.000460617011, 1.99999995e-05
      6, -7.12945761e-12, 0.00042398175, 1.99999995e-05
      7, -5.73295317e-12, 0.000389902532, 1.99999995e-05
      8, -4.43388295e-12, 0.000358201039, 1.99999995e-05
      9, -3.22544899e-12, 0.00032871135, 1.99999995e-05
     10, -2.10132736e-12, 0.000301279157, 1.99999995e-05
     11, -1.05563583e-12, 0.000275760918, 1.99999995e-05
     12, -8.2902069e-14, 0.000252023077, 1.99999995e-05
     13, 8.21963916e-13, 0.000229941434, 1.99999995e-05
     14, 1.66369761e-12, 0.000209400416, 1.99999995e-05
     15, 2.446703e-12, 0.000190292558, 1.99999995e-05
     16, 3.17507869e-12, 0.000172517844, 1.99999995e-05
     17, 3.85263522e-12, 0.000155983274, 1.99999995e-05
     18, 4.48291838e-12, 0.000140602337, 1.99999995e-05
     19, 5.06922716e-12, 0.000126294515, 1.99999995e-05
     20, 5.61462942e-12, 0.000112984948, 1.99999995e-05
** ... 26210 like lines cut
*Element, type=C3D8
   1,   33,  289,  285,   32,  511,  767,  763,  510
   2,   86,   12,   13,   85,  564,  490,  491,  563
   3,  110,   45,    1,    5,  588,  523,  479,  483
   4,    7,   96,   98,    6,  485,  574,  576,  484
   5,    9,   92,   94,    8,  487,  570,  572,  486
   6,   10,   90,   92,    9,  488,  568,  570,  487
   7,   11,   88,   90,   10,  489,  566,  568,  488
   8,  169,  124,   86,   85,  647,  602,  564,  563
   9,  123,  121,   74,   75,  601,  599,  552,  553
  10,   14,  122,   85,   13,  492,  600,  563,  491
  11,   16,  118,  120,   15,  494,  596,  598,  493
  12,  122,   14,   15,  120,  600,  492,  493,  598
  13,  118,   16,   17,  117,  596,  494,  495,  595
  14,   18,  161,  117,   17,  496,  639,  595,  495
  15,   21,  155,  157,   20,  499,  633,  635,  498
  16,  161,   18,   19,  159,  639,  496,  497,  637
  17,   22,  202,  155,   21,  500,  680,  633,  499
  18,   24,  199,  201,   23,  502,  677,  679,  501
  19,  202,   22,   23,  201,  680,  500,  501,  679
  20,  199,   24,   25,  197,  677,  502,  503,  675
** ... 20576 like lines cut
*Nset, nset=whole_plate, generate
     1,  26230,      1
*Elset, elset=whole_plate, generate
     1,  20596,      1
** Section: Section-1
*Solid Section, elset=whole_plate, material=user_material
,
*End Part
**  
**
** ASSEMBLY
**
*Assembly, name=Assembly
**  
*Instance, name=plate-1, part=plate
*End Instance
**  
*Nset, nset=bottom_side, instance=plate-1
 2456, 2457, 2458, 2459, 2460, 2461, 2462, 2463, 2464, 2465, 2466, 2467, 2472, 2473, 2475, 2477
 2479, 2482, 2485, 2488, 2791, 2792, 2793, 2794, 2795, 2796, 2797, 2907, 2908, 2909, 2910, 2911
 2912, 3034, 3035, 3036, 3037, 3038, 3039, 3040, 3041, 3042, 3043, 3044, 3045, 3054, 3055, 3056
 3057, 3058, 3059, 3060, 3061, 3062, 3063, 3064, 3065, 3066, 3067, 3068, 3069, 3070, 3071, 3072
 3073, 3074, 3075, 3076, 3077, 3078, 7183, 7184, 7185, 7186, 7187, 7188, 7189, 7190, 7191, 7192
 7193, 7194, 7195, 7196, 7197, 7198, 7199, 7200, 7201, 7202, 7203, 7204, 7205, 7206, 7207, 7208
 7209, 7210, 7211, 7212, 7213, 7214, 7215, 7216, 7217, 7218, 7288, 7289, 7290, 7291, 7292, 7293
 7294, 7295, 7296, 7297, 7298, 7299, 7310, 7311, 7575, 7576, 7577, 7578, 7579, 7580, 7581, 7582
 7583, 7584, 7585, 7586, 8047, 8048, 8049
*Elset, elset=bottom_side, instance=plate-1
  1765,  1766,  1768,  1769,  1774,  1809,  1814,  1815,  1820,  1823,  1824,  1825,  1830,  2196,  2197,  2199
  2200,  2205,  2240,  2245,  2246,  2251,  2254,  2255,  2256,  2261,  2627,  2628,  2630,  2631,  2636,  2671
  2676,  2677,  2682,  2685,  2686,  2687,  2692,  3058,  3059,  3061,  3062,  3067,  3102,  3107,  3108,  3113
  3116,  3117,  3118,  3123,  3482,  3484,  3502,  3515,  3521,  3525,  3526,  3529,  3531,  3630,  3632,  3633
  5557,  5622,  5624,  5642,  5655,  5661,  5665,  5666,  5669,  5671,  5770,  5772,  5773,  7697,  7762,  7764
  7782,  7795,  7801,  7805,  7806,  7809,  7811,  7910,  7912,  7913,  9837,  9902,  9904,  9922,  9935,  9941
  9945,  9946,  9949,  9951, 10050, 10052, 10053, 11977
*Nset, nset=left_side, instance=plate-1
    3,    4,   46,   47,   48,   49,   50,   51,   52,   53,   54,   55,   56,  481,  482,  524
  525,  526,  527,  528,  529,  530,  531,  532,  533,  534,  959,  960, 1002, 1003, 1004, 1005
 1006, 1007, 1008, 1009, 1010, 1011, 1012, 1437, 1438, 1480, 1481, 1482, 1483, 1484, 1485, 1486
 1487, 1488, 1489, 1490, 1915, 1916, 1958, 1959, 1960, 1961, 1962, 1963, 1964, 1965, 1966, 1967
 1968, 2445, 2446, 2447, 2448, 2449, 2450, 2451, 2452, 2453, 2454, 2455, 2473, 2474, 2476, 2477
 2758, 2759, 2760, 2761, 2762, 2763, 2764, 2765, 2766, 2767, 2768, 2769, 2770, 2771, 2772, 2773
 2774, 2775, 2776, 2777, 2778, 2779, 2780, 2781, 2782, 2783, 2784, 2785, 2786, 2787, 2788, 2789
 2790, 2904, 2905, 2906, 2907, 2908, 2909, 3023, 3024, 3025, 3026, 3027, 3028, 3029, 3030, 3031
 3032, 3033
*Elset, elset=left_side, instance=plate-1
   26,   27,   37,   42,   46,   47,   84,   86,   93,   98,   99,  128,  461,  462,  472,  477
  481,  482,  519,  521,  528,  533,  534,  563,  896,  897,  907,  912,  916,  917,  954,  956
  963,  968,  969,  998, 1331, 1332, 1342, 1347, 1351, 1352, 1389, 1391, 1398, 1403, 1404, 1433
 1766, 1767, 1775, 1780, 1781, 1783, 1784, 1810, 1821, 1838, 1839, 1868, 2197, 2198, 2206, 2211
 2212, 2214, 2215, 2241, 2252, 2269, 2270, 2299, 2628, 2629, 2637, 2642, 2643, 2645, 2646, 2672
 2683, 2700, 2701, 2730, 3059, 3060, 3068, 3073, 3074, 3076, 3077, 3103, 3114, 3131, 3132, 3161
*Nset, nset=right_side, instance=plate-1
  7099,  7100,  7101,  7102,  7103,  7104,  7105,  7106,  7107,  7108,  7109,  7110,  7111,  7112,  7113,  7114
  7115,  7116,  7117,  7118,  7119,  7120,  7121,  7122,  7123,  7124,  7125,  7126,  7127,  7128,  7129,  7130
  7131,  7132,  7133,  7134,  7135,  7136,  7137,  7138,  7139,  7140,  7141,  7142,  7143,  7144,  7145,  7146
  7147,  7148,  7149,  7150,  7151,  7152,  7153,  7154,  7155,  7156,  7157,  7158,  7159,  7160,  7161,  7162
  7163,  7164,  7165,  7166,  7167,  7168,  7169,  7170,  7171,  7172,  7173,  7174,  7175,  7176,  7177,  7178
  7179,  7180,  7181,  7182,  7260,  7261,  7262,  7263,  7264,  7265,  7266,  7267,  7268,  7269,  7270,  7271
  7272,  7273,  7274,  7275,  7276,  7277,  7278,  7279,  7280,  7281,  7282,  7283,  7284,  7285,  7286,  7287
  7310,  7311,  7312,  7313,  7318,  7321,  7587,  7588,  7589,  7590,  7591,  7592,  7593,  7594,  7595,  7596
  7597,  7598,  7599,  7600,  7601,  7602,  7603,  7604,  7605,  7606,  7607,  7608,  7609,  7610,  7611,  7612
  8047,  8048,  8049,  8050,  8051,  8052, 15777, 15778, 15779, 15780, 15781, 15782, 15783, 15784, 15785, 15786
 15787, 15788, 15789, 15790, 15791, 15792, 15793, 15794, 15795, 15796, 15797, 15798, 15799, 15800, 15801, 15802
 15803, 15804, 15805, 15806, 15807, 15808, 15809, 15810, 15811, 15812, 15813, 15814, 15815, 15816, 15817, 15818
 15819, 15820, 15821, 15822, 15823, 15824, 15825, 15826, 15827, 15828, 15829, 15830, 15831, 15832, 15833, 15834
 15835, 15836, 15837, 15838, 15839, 15840, 15841, 15842, 15843, 15844, 15845, 15846, 15847, 15848, 15849, 15850
 15851, 15852, 15853, 15854, 15855, 15856, 15857, 15858, 15859, 15860, 15944, 15945, 15946, 15947, 15948, 15949
 15950, 15951, 15952, 15953, 15954, 15955, 15956, 15957, 15958, 15959, 15960, 15961, 15962, 15963, 15964, 15965
 15966, 15967, 15968, 15969, 15970, 15971, 15984, 15985, 15986, 15999, 16000, 16001, 16002, 16003, 16004, 16005
 16006, 16007, 16008, 16009, 16010, 16011, 16012, 16013, 16014, 16015, 16016, 16017, 16018, 16019, 16020, 16021
 16022, 16023, 16024, 16025, 16026, 16038, 16039
*Elset, elset=right_side, instance=plate-1
  3472,  3473,  3547,  3553,  3558,  3562,  3630,  3634,  3639,  3640,  3641,  3642,  3643,  3644,  3645,  3646
  3647,  3648,  3649,  3650,  3651,  3652,  3653,  3656,  3822,  3824,  3826,  3837,  5522,  5612,  5613,  5687
  5693,  5698,  5702,  5770,  5774,  5779,  5780,  5781,  5782,  5783,  5784,  5785,  5786,  5787,  5788,  5789
  5790,  5791,  5792,  5793,  5796,  5962,  5964,  5966,  5977,  7662,  7752,  7753,  7827,  7833,  7838,  7842
  7910,  7914,  7919,  7920,  7921,  7922,  7923,  7924,  7925,  7926,  7927,  7928,  7929,  7930,  7931,  7932
  7933,  7936,  8102,  8104,  8106,  8117,  9802,  9892,  9893,  9967,  9973,  9978,  9982, 10050, 10054, 10059
 10060, 10061, 10062, 10063, 10064, 10065, 10066, 10067, 10068, 10069, 10070, 10071, 10072, 10073, 10076, 10242
 10244, 10246, 10257, 11942, 12034, 12036, 12097, 12109, 12115, 12120, 12124, 12190, 12192, 12254, 12255, 12256
 12257, 12258, 12259, 12260, 12261, 12262, 12263, 12264, 12265, 12266, 12267, 12268, 12375, 12376, 12381, 12501
 14089, 14177, 14179, 14240, 14252, 14258, 14263, 14267, 14333, 14335, 14397, 14398, 14399, 14400, 14401, 14402
 14403, 14404, 14405, 14406, 14407, 14408, 14409, 14410, 14411, 14518, 14519, 14524, 14644, 16232, 16320, 16322
 16383, 16395, 16401, 16406, 16410, 16476, 16478, 16540, 16541, 16542, 16543, 16544, 16545, 16546, 16547, 16548
 16549, 16550, 16551, 16552, 16553, 16554, 16661, 16662, 16667, 16787, 18375, 18463, 18465, 18526, 18538, 18544
 18549, 18553, 18619, 18621, 18683, 18684, 18685, 18686, 18687, 18688, 18689, 18690, 18691, 18692, 18693, 18694
 18695, 18696, 18697, 18804, 18805, 18810, 18930, 20518
*Nset, nset=top_side, instance=plate-1
     1,     3,    34,    35,    36,    37,    38,    39,    40,    41,    42,    43,    44,    45,   479,   481
   512,   513,   514,   515,   516,   517,   518,   519,   520,   521,   522,   523,   957,   959,   990,   991
   992,   993,   994,   995,   996,   997,   998,   999,  1000,  1001,  1435,  1437,  1468,  1469,  1470,  1471
  1472,  1473,  1474,  1475,  1476,  1477,  1478,  1479,  1913,  1915,  1946,  1947,  1948,  1949,  1950,  1951
  1952,  1953,  1954,  1955,  1956,  1957, 15741, 15742, 15743, 15744, 15745, 15746, 15747, 15748, 15749, 15750
 15751, 15752, 15753, 15754, 15755, 15756, 15757, 15758, 15759, 15760, 15761, 15762, 15763, 15764, 15765, 15766
 15767, 15768, 15769, 15770, 15771, 15772, 15773, 15774, 15775, 15776, 15972, 15973, 15974, 15975, 15976, 15977
 15978, 15979, 15980, 15981, 15982, 15983, 15984, 15985, 15986, 15987, 15988, 15989, 15990, 15991, 15992, 15993
 15994, 15995, 15996, 15997, 15998, 16038, 16039
*Elset, elset=top_side, instance=plate-1
     3,    26,    28,    29,    30,    36,    72,    73,    77,    78,    83,    85,    91,   438,   461,   463
   464,   465,   471,   507,   508,   512,   513,   518,   520,   526,   873,   896,   898,   899,   900,   906
   942,   943,   947,   948,   953,   955,   961,  1308,  1331,  1333,  1334,  1335,  1341,  1377,  1378,  1382
  1383,  1388,  1390,  1396, 12041, 12042, 12054, 12108, 12114, 12118, 12123, 12125, 12254, 12271, 12272, 12273
 14118, 14184, 14185, 14197, 14251, 14257, 14261, 14266, 14268, 14397, 14414, 14415, 14416, 16261, 16327, 16328
 16340, 16394, 16400, 16404, 16409, 16411, 16540, 16557, 16558, 16559, 18404, 18470, 18471, 18483, 18537, 18543
 18547, 18552, 18554, 18683, 18700, 18701, 18702, 20547
*Nset, nset=whole_plate, instance=plate-1, generate
     1,  26230,      1
*Elset, elset=whole_plate, instance=plate-1, generate
     1,  20596,      1
*End Assembly
*Amplitude, name=Amp-1
             0.,              1.,        1000000.,              1.
** 
** MATERIALS
** 
*Material, name=user_material
*Density
1.,
*Depvar
     15,
*Specific Heat
1.,
*User Material, constants=1
0.,
** 
** BOUNDARY CONDITIONS
** 
** Name: BC-1 Type: Displacement/Rotation
*Boundary
bottom_side, 1, 1
bottom_side, 2, 2
bottom_side, 3, 3
** 
** PREDEFINED FIELDS
** 
** Name: Predefined Field-1   Type: Temperature
*Initial Conditions, type=TEMPERATURE
whole_plate, 0.5
** ----------------------------------------------------------------
** 
** STEP: Step-1
** 
*Step, name=Step-1, nlgeom=YES, amplitude=RAMP, inc=1000000
*Coupled Temperature-displacement, creep=none
10000., 1e+07, 
** 
** BOUNDARY CONDITIONS
** 
** Name: BC-2 Type: Displacement/Rotation
*Boundary
top_side, 2, 2, 1e-05
** Name: BC-3 Type: Temperature
*Boundary, amplitude=Amp-1
bottom_side, 11, 11, 0.5
** Name: BC-4 Type: Temperature
*Boundary, amplitude=Amp-1
left_side, 11, 11, 0.5
** Name: BC-5 Type: Temperature
*Boundary, amplitude=Amp-1
right_side, 11, 11, 0.5
** 
** OUTPUT REQUESTS
** 
*Restart, write, frequency=0
** 
** FIELD OUTPUT: F-Output-1
** 
*Output, field
*Node Output
NT, RF, U
*Element Output, directions=YES
SDV, 
*Output, history, frequency=0
*End Step
