** MATERIALS
** 
*Material, name=QP1000
*Depvar, delete=30
     37,
*User Material, constants=3216
** Young's Modulus, Poisson Ratio
 210000,        0.3,          0.0,         0.0,            0.0,            0.0,         0.0,   0.
** Reference temperature, three parameters for temperature softening, Dens, Heat capacity,
** Specific heat fraction  
 298.15,        1.0,          0.0,         0.0,       7.85e-09,    460000000.0,         0.9,   0.
** 4 parameters for strain rate hardening, User defined increment No.
    1.0,        0.0,          1.0,         0.0,          500.0,            0.0,         0.0,   0.
** Cleavage fracuture stress, 4 parameters for cleavage fracture locus 
 50000.0,       4.96,         6.42,        0.11,           1.55,            0.0,         0.0,   0.
** Cut-off value, Damage energy dissipation, 6 parameters for ductile damage initiation locus, 
 -0.33333333,  1.0,        1.03,        0.1,          0.86,          0.1,       1.03,  0.1
** 4 parameters for ductile fracture locus    
 1.00,          0.0,         1.00,         0.0,            0.0,            0.0,         0.0,   0.
** Flow curves along 0, 45, 90 and biaxial; r-values along 0, 45 and 90
0, 339.4232649, 339.4232649, 375.2724288, 689.3565244, 0.631056633, 0.725449642, 0.620532593
0.00011, 428.7353928, 428.7353928, 496.0434717, 706.6169465, 0.631486431, 0.726059601, 0.621503163
0.0002, 475.2871244, 475.2871244, 541.4019135, 718.5880163, 0.631837022, 0.726557227, 0.622294523
0.0003, 517.8337829, 517.8337829, 580.7159345, 730.013756, 0.632225449, 0.727108638, 0.623170928
0.0004, 553.1749154, 553.1749154, 608.4718179, 739.7966698, 0.632612702, 0.727658465, 0.624044306
0.0005, 582.8118073, 582.8118073, 630.0282168, 748.2207307, 0.632998786, 0.728206715, 0.624914669
0.0006, 607.8139383, 607.8139383, 650.0500865, 755.5200348, 0.633383703, 0.728753392, 0.625782026
0.0007, 629.0048807, 629.0048807, 664.0755418, 761.8875848, 0.633767457, 0.7292985, 0.626646388
0.0008, 647.0411293, 647.0411293, 680.8567157, 767.4825261, 0.634150051, 0.729842043, 0.627507765
0.0009, 662.4552795, 662.4552795, 693.8628144, 772.4361073, 0.63453149, 0.730384027, 0.628366168
0.001, 675.6837187, 675.6837187, 704.349488, 776.8565909, 0.634911776, 0.730924455, 0.629221607
0.002, 743.4299382, 743.4299382, 780.0924907, 805.4537539, 0.63865201, 0.73624417, 0.637615201
0.003, 769.3431205, 769.3431205, 817.7826499, 823.7056849, 0.642280761, 0.741413179, 0.645723419
0.004, 786.0290123, 786.0290123, 839.6253213, 839.0205103, 0.645801352, 0.746435753, 0.653555963
0.005, 799.58011, 799.58011, 854.3926743, 852.7565069, 0.649217006, 0.751316039, 0.661122207
0.01, 849.5665714, 849.5665714, 896.1968447, 907.3359454, 0.664827495, 0.773720315, 0.695265248
0.011, 857.5731416, 857.5731416, 902.5627373, 916.3163669, 0.667676046, 0.777827642, 0.701413407
0.012, 865.1517019, 865.1517019, 908.3052053, 924.8314465, 0.670439692, 0.78181861, 0.707352532
0.013, 872.3581563, 872.3581563, 913.9843141, 932.9316834, 0.673120963, 0.785696515, 0.713089732
0.014, 879.237437, 879.237437, 919.4246372, 940.6595547, 0.675722314, 0.789464562, 0.718631871
** ... 376 like lines cut
*Density
 7.85e-09,