1

   Abaqus 2023.HF4                                  Date 12-Aug-2024   Time 21:18:28
   For use by AALTO UNIVERSITY under license from Dassault Systemes or its subsidiary.

                                                                                 
                                                                                 
 STEP    1     INCREMENT     1     STEP TIME    0.00    


                        S T E P       1     C O U P L E D - T E M P E R A T U R E - D I S P L A C E M E N T   A N A L Y S I S


                                                                                          

          FIXED TIME INCREMENTS
          TIME INCREMENT IS                                    1.000E+04
          TIME PERIOD IS                                       1.000E+07

          CREEP AND SWELLING EFFECTS ARE OMITTED IN THIS STEP
          THE RATE DEPENDENCY WILL BE CONSIDERED IN THIS STEP

          CREEP AND SWELLING EFFECTS WILL BE IGNORED.

 CONVERGENCE TOLERANCE PARAMETERS FOR FORCE    
     CRITERION FOR RESIDUAL FORCE     FOR A NONLINEAR PROBLEM          5.000E-03
     CRITERION FOR DISP.    CORRECTION IN A NONLINEAR PROBLEM          1.000E-02
     INITIAL VALUE OF TIME AVERAGE FORCE                               1.000E-02
     AVERAGE FORCE     IS TIME AVERAGE FORCE    
     ALTERNATE CRIT. FOR RESIDUAL FORCE     FOR A NONLINEAR PROBLEM    2.000E-02
     CRITERION FOR ZERO FORCE     RELATIVE TO TIME AVRG. FORCE         1.000E-05
     CRITERION FOR RESIDUAL FORCE     WHEN THERE IS ZERO FLUX          1.000E-05
     CRITERION FOR DISP.    CORRECTION WHEN THERE IS ZERO FLUX         1.000E-03
     CRITERION FOR RESIDUAL FORCE     FOR A LINEAR INCREMENT           1.000E-08
     FIELD CONVERSION RATIO                                             1.00    
     CRITERION FOR ZERO FORCE     REL. TO TIME AVRG. MAX. FORCE        1.000E-05
     CRITERION FOR ZERO DISP.    RELATIVE TO CHARACTERISTIC LENGTH     1.000E-08

 CONVERGENCE TOLERANCE PARAMETERS FOR HEAT FLUX
     CRITERION FOR RESIDUAL HEAT FLUX FOR A NONLINEAR PROBLEM          5.000E-03
     CRITERION FOR TEMP.    CORRECTION IN A NONLINEAR PROBLEM          1.000E-02
     INITIAL VALUE OF TIME AVERAGE HEAT FLUX                           1.000E-02
     AVERAGE HEAT FLUX IS TIME AVERAGE HEAT FLUX
     ALTERNATE CRIT. FOR RESIDUAL HEAT FLUX FOR A NONLINEAR PROBLEM    2.000E-02
     CRITERION FOR ZERO HEAT FLUX RELATIVE TO TIME AVRG. HEAT FLUX     1.000E-05
     CRITERION FOR RESIDUAL HEAT FLUX WHEN THERE IS ZERO FLUX          1.000E-05
     CRITERION FOR TEMP.    CORRECTION WHEN THERE IS ZERO FLUX         1.000E-03
     CRITERION FOR RESIDUAL HEAT FLUX FOR A LINEAR INCREMENT           1.000E-08
     FIELD CONVERSION RATIO                                             1.00    
     CRITERION FOR ZERO HEAT FLUX REL. TO TIME AVRG. MAX. HEAT FLUX    1.000E-05

     VOLUMETRIC STRAIN COMPATIBILITY TOLERANCE FOR HYBRID SOLIDS       1.000E-05
     AXIAL STRAIN COMPATIBILITY TOLERANCE FOR HYBRID BEAMS             1.000E-05
     TRANS. SHEAR STRAIN COMPATIBILITY TOLERANCE FOR HYBRID BEAMS      1.000E-05
     SOFT CONTACT CONSTRAINT COMPATIBILITY TOLERANCE FOR P>P0          5.000E-03
     SOFT CONTACT CONSTRAINT COMPATIBILITY TOLERANCE FOR P=0.0         0.100    
     CONTACT FORCE ERROR TOLERANCE FOR CONVERT SDI=YES                 1.00    
     DISPLACEMENT COMPATIBILITY TOLERANCE FOR DCOUP ELEMENTS           1.000E-05
     ROTATION COMPATIBILITY TOLERANCE FOR DCOUP ELEMENTS               1.000E-05

 EQUILIBRIUM WILL BE CHECKED FOR SEVERE DISCONTINUITY ITERATIONS

 ITERATION CONTROL PARAMETERS:
     FIRST EQUILIBRIUM ITERATION FOR CONSECUTIVE DIVERGENCE CHECK              4
     EQUILIBRIUM ITERATION AFTER WHICH ALTERNATE RESIDUAL IS USED              9
     MAXIMUM EQUILIBRIUM ITERATIONS ALLOWED                                   16
     MAXIMUM ITERATIONS FOR SEVERE DISCONTINUITIES                            12
     GLOBAL STABILIZATION CONTROL IS NOT USED

          PRINT OF INCREMENT NUMBER, TIME, ETC., EVERY    1  INCREMENTS

     THE MAXIMUM NUMBER OF INCREMENTS IN THIS STEP IS                 1000000

          UNSYMMETRIC MATRIX STORAGE AND SOLUTION WILL BE USED

     LINEAR EXTRAPOLATION WILL BE USED

     CHARACTERISTIC ELEMENT LENGTH     1.066E-02

     DETAILS REGARDING ACTUAL SOLUTION WAVEFRONT REQUESTED

     DETAILED OUTPUT OF DIAGNOSTICS TO DATABASE REQUESTED

     PRINT OF INCREMENT NUMBER, TIME, ETC., TO THE MESSAGE FILE EVERY     1  INCREMENTS

     ELEMENT OPERATIONS WILL BE CARRIED OUT IN PARALLEL USING   2 THREADS ON 1 DOMAIN

     PARALLEL CONTACT TRACKING ENABLED


     COLLECTING MODEL CONSTRAINT INFORMATION FOR OVERCONSTRAINT CHECKS

     COLLECTING STEP CONSTRAINT INFORMATION FOR OVERCONSTRAINT CHECKS


  INCREMENT     1 STARTS. ATTEMPT NUMBER  1, TIME INCREMENT  1.000E+04
 
     INITIAL ELEMENT LOAD BALANCE
            DOMAIN    1     THREAD    NUMBER OF ELEMENTS
                              1            5360
                              2            5448
 
	UNSYMMETRIC NEW DIRECT SPARSE SOLVER RUNNING ON
 	1 HOST x 1 MPI RANK PER HOST x 2 THREADS PER RANK
        NUMBER OF EQUATIONS:  65612
        NUMBER OF RHS:        1
        NUMBER OF FLOPS:      9.693e+09
        SOLVER ELAPSED TIME:  202ms

               CONVERGENCE CHECKS FOR EQUILIBRIUM ITERATION     1


 AVERAGE FORCE                      1.271E-03   TIME AVG. FORCE       1.271E-03
 LARGEST SCALED RESIDUAL FORCE     -1.395E-14   AT NODE       6388   DOF  2
   INSTANCE: PLATE-1                                                                         
  CORRESPONDING RESIDUAL FORCE     -1.395E-14
 LARGEST INCREMENT OF DISP.         1.065E-05   AT NODE         38   DOF  2
   INSTANCE: PLATE-1                                                                         
 LARGEST CORRECTION TO DISP.        1.065E-05   AT NODE         38   DOF  2
   INSTANCE: PLATE-1                                                                         
          THE FORCE     EQUILIBRIUM RESPONSE WAS LINEAR IN THIS INCREMENT

 AVERAGE HEAT FLUX                  3.926E-17   TIME AVG. HEAT FLUX   1.000E-02
 LARGEST RESIDUAL HEAT FLUX         2.484E-16   AT NODE       5292   DOF 11
   INSTANCE: PLATE-1                                                                         
 LARGEST INCREMENT OF TEMP.         5.254E-15   AT NODE        325   DOF 11
   INSTANCE: PLATE-1                                                                         
 LARGEST CORRECTION TO TEMP.        5.254E-15   AT NODE        325   DOF 11
   INSTANCE: PLATE-1                                                                         
          THERE IS ZERO HEAT FLUX EVERYWHERE
 

 ***WARNING: THERE IS ZERO HEAT FLUX EVERYWHERE IN THE MODEL BASED ON THE 
             DEFAULT CRITERION. PLEASE CHECK THE VALUE OF THE AVERAGE HEAT FLUX 
             DURING THE CURRENT ITERATION TO VERIFY THAT THE HEAT FLUX IS SMALL 
             ENOUGH TO BE TREATED AS ZERO. IF NOT, PLEASE USE THE SOLUTION 
             CONTROLS TO RESET THE CRITERION FOR ZERO HEAT FLUX.

 ITERATION SUMMARY FOR THE INCREMENT:   1 TOTAL ITERATIONS, OF WHICH
   0 ARE SEVERE DISCONTINUITY ITERATIONS AND  1 ARE EQUILIBRIUM ITERATIONS.

 TIME INCREMENT COMPLETED  1.000E+04,  FRACTION OF STEP COMPLETED  1.000E-03
 STEP TIME COMPLETED       1.000E+04,  TOTAL TIME COMPLETED        1.000E+04


  INCREMENT     2 STARTS. ATTEMPT NUMBER  1, TIME INCREMENT  1.000E+04
 
	UNSYMMETRIC NEW DIRECT SPARSE SOLVER RUNNING ON
 	1 HOST x 1 MPI RANK PER HOST x 2 THREADS PER RANK
        NUMBER OF EQUATIONS:  65612
        NUMBER OF RHS:        1
        NUMBER OF FLOPS:      9.693e+09
        SOLVER ELAPSED TIME:  15ms

               CONVERGENCE CHECKS FOR EQUILIBRIUM ITERATION     1


 AVERAGE FORCE                      6.389E-03   TIME AVG. FORCE       3.830E-03
 LARGEST SCALED RESIDUAL FORCE      4.937E-11   AT NODE       6707   DOF  3
   INSTANCE: PLATE-1                                                                         
  CORRESPONDING RESIDUAL FORCE      4.937E-11
 LARGEST INCREMENT OF DISP.         1.065E-05   AT NODE         38   DOF  2
   INSTANCE: PLATE-1                                                                         
 LARGEST CORRECTION TO DISP.        1.950E-06   AT NODE       6707   DOF  3
   INSTANCE: PLATE-1                                                                         
 ESTIMATE OF DISP.    CORRECTION    2.065E-09
 FORCE     EQUILIB. ACCEPTED BASED ON SMALL RESIDUAL AND ESTIMATED CORRECTION

 AVERAGE HEAT FLUX                  3.960E-07   TIME AVG. HEAT FLUX   3.960E-07
 LARGEST RESIDUAL HEAT FLUX         1.295E-05   AT NODE          8   DOF 11
   INSTANCE: PLATE-1                                                                         
 LARGEST INCREMENT OF TEMP.         1.114E-03   AT NODE          8   DOF 11
   INSTANCE: PLATE-1                                                                         
 LARGEST CORRECTION TO TEMP.        1.114E-03   AT NODE          8   DOF 11
   INSTANCE: PLATE-1                                                                         
          HEAT FLUX EQUILIBRIUM NOT ACHIEVED WITHIN TOLERANCE.
 
	UNSYMMETRIC NEW DIRECT SPARSE SOLVER RUNNING ON
 	1 HOST x 1 MPI RANK PER HOST x 2 THREADS PER RANK
        NUMBER OF EQUATIONS:  65612
        NUMBER OF RHS:        1
        NUMBER OF FLOPS:      9.693e+09
        SOLVER ELAPSED TIME:  183ms

               CONVERGENCE CHECKS FOR EQUILIBRIUM ITERATION     2


 AVERAGE FORCE                      6.389E-03   TIME AVG. FORCE       3.830E-03
 LARGEST SCALED RESIDUAL FORCE      1.601E-13   AT NODE       6707   DOF  3
   INSTANCE: PLATE-1                                                                         
  CORRESPONDING RESIDUAL FORCE      1.601E-13
 LARGEST INCREMENT OF DISP.         1.065E-05   AT NODE         38   DOF  2
   INSTANCE: PLATE-1                                                                         
 LARGEST CORRECTION TO DISP.        9.900E-10   AT NODE       6707   DOF  3
   INSTANCE: PLATE-1                                                                         
          THE FORCE     EQUILIBRIUM EQUATIONS HAVE CONVERGED

 AVERAGE HEAT FLUX                  3.958E-07   TIME AVG. HEAT FLUX   3.958E-07
 LARGEST RESIDUAL HEAT FLUX         2.162E-16   AT NODE       1468   DOF 11
   INSTANCE: PLATE-1                                                                         
 LARGEST INCREMENT OF TEMP.         1.120E-03   AT NODE          8   DOF 11
   INSTANCE: PLATE-1                                                                         
 LARGEST CORRECTION TO TEMP.        6.035E-06   AT NODE          8   DOF 11
   INSTANCE: PLATE-1                                                                         
          THE HEAT FLUX EQUILIBRIUM EQUATIONS HAVE CONVERGED

 ITERATION SUMMARY FOR THE INCREMENT:   2 TOTAL ITERATIONS, OF WHICH
   0 ARE SEVERE DISCONTINUITY ITERATIONS AND  2 ARE EQUILIBRIUM ITERATIONS.

 TIME INCREMENT COMPLETED  1.000E+04,  FRACTION OF STEP COMPLETED  2.000E-03
 STEP TIME COMPLETED       2.000E+04,  TOTAL TIME COMPLETED        2.000E+04


  INCREMENT     3 STARTS. ATTEMPT NUMBER  1, TIME INCREMENT  1.000E+04
 
	UNSYMMETRIC NEW DIRECT SPARSE SOLVER RUNNING ON
 	1 HOST x 1 MPI RANK PER HOST x 2 THREADS PER RANK
        NUMBER OF EQUATIONS:  65612
        NUMBER OF RHS:        1
        NUMBER OF FLOPS:      9.693e+09
        SOLVER ELAPSED TIME:  183ms

               CONVERGENCE CHECKS FOR EQUILIBRIUM ITERATION     1


 AVERAGE FORCE                      9.583E-03   TIME AVG. FORCE       5.748E-03
 LARGEST SCALED RESIDUAL FORCE      1.285E-12   AT NODE       6707   DOF  3
   INSTANCE: PLATE-1                                                                         
  CORRESPONDING RESIDUAL FORCE      1.285E-12
 LARGEST INCREMENT OF DISP.         1.065E-05   AT NODE         38   DOF  2
   INSTANCE: PLATE-1                                                                         
 LARGEST CORRECTION TO DISP.        3.907E-06   AT NODE       6707   DOF  3
   INSTANCE: PLATE-1                                                                         
          THE FORCE     EQUILIBRIUM RESPONSE WAS LINEAR IN THIS INCREMENT

 AVERAGE HEAT FLUX                  7.957E-07   TIME AVG. HEAT FLUX   5.958E-07
 LARGEST RESIDUAL HEAT FLUX         2.511E-16   AT NODE       2153   DOF 11
   INSTANCE: PLATE-1                                                                         
 LARGEST INCREMENT OF TEMP.         1.132E-03   AT NODE          8   DOF 11
   INSTANCE: PLATE-1                                                                         
 LARGEST CORRECTION TO TEMP.        1.216E-05   AT NODE          8   DOF 11
   INSTANCE: PLATE-1                                                                         
          THE HEAT FLUX EQUILIBRIUM RESPONSE WAS LINEAR IN THIS INCREMENT

 ITERATION SUMMARY FOR THE INCREMENT:   1 TOTAL ITERATIONS, OF WHICH
   0 ARE SEVERE DISCONTINUITY ITERATIONS AND  1 ARE EQUILIBRIUM ITERATIONS.

 TIME INCREMENT COMPLETED  1.000E+04,  FRACTION OF STEP COMPLETED  3.000E-03
 STEP TIME COMPLETED       3.000E+04,  TOTAL TIME COMPLETED        3.000E+04


  INCREMENT     4 STARTS. ATTEMPT NUMBER  1, TIME INCREMENT  1.000E+04
 
	UNSYMMETRIC NEW DIRECT SPARSE SOLVER RUNNING ON
 	1 HOST x 1 MPI RANK PER HOST x 2 THREADS PER RANK
        NUMBER OF EQUATIONS:  65612
        NUMBER OF RHS:        1
        NUMBER OF FLOPS:      9.693e+09
        SOLVER ELAPSED TIME:  16ms

               CONVERGENCE CHECKS FOR EQUILIBRIUM ITERATION     1


 AVERAGE FORCE                      1.278E-02   TIME AVG. FORCE       7.505E-03
 LARGEST SCALED RESIDUAL FORCE      1.029E-10   AT NODE       6707   DOF  3
   INSTANCE: PLATE-1                                                                         
  CORRESPONDING RESIDUAL FORCE      1.029E-10
 LARGEST INCREMENT OF DISP.         1.065E-05   AT NODE         38   DOF  2
   INSTANCE: PLATE-1                                                                         
 LARGEST CORRECTION TO DISP.        3.911E-06   AT NODE       6707   DOF  3
   INSTANCE: PLATE-1                                                                         
 ESTIMATE OF DISP.    CORRECTION    1.330E-09
 FORCE     EQUILIB. ACCEPTED BASED ON SMALL RESIDUAL AND ESTIMATED CORRECTION

 AVERAGE HEAT FLUX                  1.195E-06   TIME AVG. HEAT FLUX   7.954E-07
 LARGEST RESIDUAL HEAT FLUX         1.125E-07   AT NODE          8   DOF 11
   INSTANCE: PLATE-1                                                                         
 LARGEST INCREMENT OF TEMP.         1.144E-03   AT NODE          8   DOF 11
   INSTANCE: PLATE-1                                                                         
 LARGEST CORRECTION TO TEMP.        1.221E-05   AT NODE          8   DOF 11
   INSTANCE: PLATE-1                                                                         
          HEAT FLUX EQUILIBRIUM NOT ACHIEVED WITHIN TOLERANCE.
 
	UNSYMMETRIC NEW DIRECT SPARSE SOLVER RUNNING ON
 	1 HOST x 1 MPI RANK PER HOST x 2 THREADS PER RANK
        NUMBER OF EQUATIONS:  65612
        NUMBER OF RHS:        1
        NUMBER OF FLOPS:      9.693e+09
        SOLVER ELAPSED TIME:  165ms

               CONVERGENCE CHECKS FOR EQUILIBRIUM ITERATION     2


 AVERAGE FORCE                      1.278E-02   TIME AVG. FORCE       7.505E-03
 LARGEST SCALED RESIDUAL FORCE      6.837E-15   AT NODE       6707   DOF  3
   INSTANCE: PLATE-1                                                                         
  CORRESPONDING RESIDUAL FORCE      6.837E-15
 LARGEST INCREMENT OF DISP.         1.065E-05   AT NODE         38   DOF  2
   INSTANCE: PLATE-1                                                                         
 LARGEST CORRECTION TO DISP.        2.004E-09   AT NODE       6707   DOF  3
   INSTANCE: PLATE-1                                                                         
          THE FORCE     EQUILIBRIUM EQUATIONS HAVE CONVERGED

 AVERAGE HEAT FLUX                  1.195E-06   TIME AVG. HEAT FLUX   7.954E-07
 LARGEST RESIDUAL HEAT FLUX        -2.087E-16   AT NODE       3229   DOF 11
   INSTANCE: PLATE-1                                                                         
 LARGEST INCREMENT OF TEMP.         1.144E-03   AT NODE          8   DOF 11
   INSTANCE: PLATE-1                                                                         
 LARGEST CORRECTION TO TEMP.        4.270E-08   AT NODE          8   DOF 11
   INSTANCE: PLATE-1                                                                         
          THE HEAT FLUX EQUILIBRIUM EQUATIONS HAVE CONVERGED

 ITERATION SUMMARY FOR THE INCREMENT:   2 TOTAL ITERATIONS, OF WHICH
   0 ARE SEVERE DISCONTINUITY ITERATIONS AND  2 ARE EQUILIBRIUM ITERATIONS.

 TIME INCREMENT COMPLETED  1.000E+04,  FRACTION OF STEP COMPLETED  4.000E-03
 STEP TIME COMPLETED       4.000E+04,  TOTAL TIME COMPLETED        4.000E+04


  INCREMENT     5 STARTS. ATTEMPT NUMBER  1, TIME INCREMENT  1.000E+04
 
	UNSYMMETRIC NEW DIRECT SPARSE SOLVER RUNNING ON
 	1 HOST x 1 MPI RANK PER HOST x 2 THREADS PER RANK
        NUMBER OF EQUATIONS:  65612
        NUMBER OF RHS:        1
        NUMBER OF FLOPS:      9.693e+09
        SOLVER ELAPSED TIME:  170ms

               CONVERGENCE CHECKS FOR EQUILIBRIUM ITERATION     1


 AVERAGE FORCE                      1.597E-02   TIME AVG. FORCE       9.198E-03
 LARGEST SCALED RESIDUAL FORCE      5.129E-12   AT NODE       6707   DOF  3
   INSTANCE: PLATE-1                                                                         
  CORRESPONDING RESIDUAL FORCE      5.129E-12
 LARGEST INCREMENT OF DISP.         1.369E-05   AT NODE       6707   DOF  3
   INSTANCE: PLATE-1                                                                         
 LARGEST CORRECTION TO DISP.        3.918E-06   AT NODE       6707   DOF  3
   INSTANCE: PLATE-1                                                                         
          THE FORCE     EQUILIBRIUM RESPONSE WAS LINEAR IN THIS INCREMENT

 AVERAGE HEAT FLUX                  1.594E-06   TIME AVG. HEAT FLUX   9.952E-07
 LARGEST RESIDUAL HEAT FLUX         2.377E-16   AT NODE       4392   DOF 11
   INSTANCE: PLATE-1                                                                         
 LARGEST INCREMENT OF TEMP.         1.157E-03   AT NODE          8   DOF 11
   INSTANCE: PLATE-1                                                                         
 LARGEST CORRECTION TO TEMP.        1.237E-05   AT NODE          8   DOF 11
   INSTANCE: PLATE-1                                                                         
          THE HEAT FLUX EQUILIBRIUM RESPONSE WAS LINEAR IN THIS INCREMENT

 ITERATION SUMMARY FOR THE INCREMENT:   1 TOTAL ITERATIONS, OF WHICH
   0 ARE SEVERE DISCONTINUITY ITERATIONS AND  1 ARE EQUILIBRIUM ITERATIONS.

 TIME INCREMENT COMPLETED  1.000E+04,  FRACTION OF STEP COMPLETED  5.000E-03
 STEP TIME COMPLETED       5.000E+04,  TOTAL TIME COMPLETED        5.000E+04


  INCREMENT     6 STARTS. ATTEMPT NUMBER  1, TIME INCREMENT  1.000E+04
 
	UNSYMMETRIC NEW DIRECT SPARSE SOLVER RUNNING ON
 	1 HOST x 1 MPI RANK PER HOST x 2 THREADS PER RANK
        NUMBER OF EQUATIONS:  65612
        NUMBER OF RHS:        1
        NUMBER OF FLOPS:      9.693e+09
        SOLVER ELAPSED TIME:  17ms

               CONVERGENCE CHECKS FOR EQUILIBRIUM ITERATION     1


 AVERAGE FORCE                      1.917E-02   TIME AVG. FORCE       1.086E-02
 LARGEST SCALED RESIDUAL FORCE      1.092E-10   AT NODE       6707   DOF  3
   INSTANCE: PLATE-1                                                                         
  CORRESPONDING RESIDUAL FORCE      1.092E-10
 LARGEST INCREMENT OF DISP.         1.761E-05   AT NODE       6707   DOF  3
   INSTANCE: PLATE-1                                                                         
 LARGEST CORRECTION TO DISP.        3.923E-06   AT NODE       6707   DOF  3
   INSTANCE: PLATE-1                                                                         
 ESTIMATE OF DISP.    CORRECTION    6.437E-10
 FORCE     EQUILIB. ACCEPTED BASED ON SMALL RESIDUAL AND ESTIMATED CORRECTION

 AVERAGE HEAT FLUX                  1.995E-06   TIME AVG. HEAT FLUX   1.195E-06
 LARGEST RESIDUAL HEAT FLUX         1.142E-07   AT NODE          8   DOF 11
   INSTANCE: PLATE-1                                                                         
 LARGEST INCREMENT OF TEMP.         1.169E-03   AT NODE          8   DOF 11
   INSTANCE: PLATE-1                                                                         
 LARGEST CORRECTION TO TEMP.        1.244E-05   AT NODE          8   DOF 11
   INSTANCE: PLATE-1                                                                         
          HEAT FLUX EQUILIBRIUM NOT ACHIEVED WITHIN TOLERANCE.
 
	UNSYMMETRIC NEW DIRECT SPARSE SOLVER RUNNING ON
 	1 HOST x 1 MPI RANK PER HOST x 2 THREADS PER RANK
        NUMBER OF EQUATIONS:  65612
        NUMBER OF RHS:        1
        NUMBER OF FLOPS:      9.693e+09
        SOLVER ELAPSED TIME:  172ms

               CONVERGENCE CHECKS FOR EQUILIBRIUM ITERATION     2


 AVERAGE FORCE                      1.917E-02   TIME AVG. FORCE       1.086E-02
 LARGEST SCALED RESIDUAL FORCE      1.904E-14   AT NODE       6707   DOF  3
   INSTANCE: PLATE-1                                                                         
  CORRESPONDING RESIDUAL FORCE      1.904E-14
 LARGEST INCREMENT OF DISP.         1.761E-05   AT NODE       6707   DOF  3
   INSTANCE: PLATE-1                                                                         
 LARGEST CORRECTION TO DISP.        2.049E-09   AT NODE       6707   DOF  3
   INSTANCE: PLATE-1                                                                         
          THE FORCE     EQUILIBRIUM EQUATIONS HAVE CONVERGED

 AVERAGE HEAT FLUX                  1.995E-06   TIME AVG. HEAT FLUX   1.195E-06
 LARGEST RESIDUAL HEAT FLUX         2.210E-16   AT NODE       5312   DOF 11
   INSTANCE: PLATE-1                                                                         
 LARGEST INCREMENT OF TEMP.         1.169E-03   AT NODE          8   DOF 11
   INSTANCE: PLATE-1                                                                         
 LARGEST CORRECTION TO TEMP.        4.346E-08   AT NODE          8   DOF 11
   INSTANCE: PLATE-1                                                                         
          THE HEAT FLUX EQUILIBRIUM EQUATIONS HAVE CONVERGED

 ITERATION SUMMARY FOR THE INCREMENT:   2 TOTAL ITERATIONS, OF WHICH
   0 ARE SEVERE DISCONTINUITY ITERATIONS AND  2 ARE EQUILIBRIUM ITERATIONS.

 TIME INCREMENT COMPLETED  1.000E+04,  FRACTION OF STEP COMPLETED  6.000E-03
 STEP TIME COMPLETED       6.000E+04,  TOTAL TIME COMPLETED        6.000E+04


  INCREMENT     7 STARTS. ATTEMPT NUMBER  1, TIME INCREMENT  1.000E+04
 
	UNSYMMETRIC NEW DIRECT SPARSE SOLVER RUNNING ON
 	1 HOST x 1 MPI RANK PER HOST x 2 THREADS PER RANK
        NUMBER OF EQUATIONS:  65612
        NUMBER OF RHS:        1
        NUMBER OF FLOPS:      9.693e+09
        SOLVER ELAPSED TIME:  167ms

               CONVERGENCE CHECKS FOR EQUILIBRIUM ITERATION     1


 AVERAGE FORCE                      2.236E-02   TIME AVG. FORCE       1.250E-02
 LARGEST SCALED RESIDUAL FORCE      1.156E-11   AT NODE       6707   DOF  3
   INSTANCE: PLATE-1                                                                         
  CORRESPONDING RESIDUAL FORCE      1.156E-11
 LARGEST INCREMENT OF DISP.         2.154E-05   AT NODE       6707   DOF  3
   INSTANCE: PLATE-1                                                                         
 LARGEST CORRECTION TO DISP.        3.931E-06   AT NODE       6707   DOF  3
   INSTANCE: PLATE-1                                                                         
          THE FORCE     EQUILIBRIUM RESPONSE WAS LINEAR IN THIS INCREMENT

 AVERAGE HEAT FLUX                  2.396E-06   TIME AVG. HEAT FLUX   1.395E-06
 LARGEST RESIDUAL HEAT FLUX        -2.081E-16   AT NODE       3429   DOF 11
   INSTANCE: PLATE-1                                                                         
 LARGEST INCREMENT OF TEMP.         1.182E-03   AT NODE          8   DOF 11
   INSTANCE: PLATE-1                                                                         
 LARGEST CORRECTION TO TEMP.        1.260E-05   AT NODE          8   DOF 11
   INSTANCE: PLATE-1                                                                         
          THE HEAT FLUX EQUILIBRIUM RESPONSE WAS LINEAR IN THIS INCREMENT

 ITERATION SUMMARY FOR THE INCREMENT:   1 TOTAL ITERATIONS, OF WHICH
   0 ARE SEVERE DISCONTINUITY ITERATIONS AND  1 ARE EQUILIBRIUM ITERATIONS.

 TIME INCREMENT COMPLETED  1.000E+04,  FRACTION OF STEP COMPLETED  7.000E-03
 STEP TIME COMPLETED       7.000E+04,  TOTAL TIME COMPLETED        7.000E+04


  INCREMENT     8 STARTS. ATTEMPT NUMBER  1, TIME INCREMENT  1.000E+04
 
	UNSYMMETRIC NEW DIRECT SPARSE SOLVER RUNNING ON
 	1 HOST x 1 MPI RANK PER HOST x 2 THREADS PER RANK
        NUMBER OF EQUATIONS:  65612
        NUMBER OF RHS:        1
        NUMBER OF FLOPS:      9.693e+09
        SOLVER ELAPSED TIME:  14ms

               CONVERGENCE CHECKS FOR EQUILIBRIUM ITERATION     1


 AVERAGE FORCE                      2.555E-02   TIME AVG. FORCE       1.413E-02
 LARGEST SCALED RESIDUAL FORCE      1.181E-10   AT NODE       6707   DOF  3
   INSTANCE: PLATE-1                                                                         
  CORRESPONDING RESIDUAL FORCE      1.181E-10
 LARGEST INCREMENT OF DISP.         2.548E-05   AT NODE       6707   DOF  3
   INSTANCE: PLATE-1                                                                         
 LARGEST CORRECTION TO DISP.        3.935E-06   AT NODE       6707   DOF  3
   INSTANCE: PLATE-1                                                                         
          THE FORCE     EQUILIBRIUM RESPONSE WAS LINEAR IN THIS INCREMENT

 AVERAGE HEAT FLUX                  2.798E-06   TIME AVG. HEAT FLUX   1.596E-06
 LARGEST RESIDUAL HEAT FLUX         1.158E-07   AT NODE          8   DOF 11
   INSTANCE: PLATE-1                                                                         
 LARGEST INCREMENT OF TEMP.         1.194E-03   AT NODE          8   DOF 11
   INSTANCE: PLATE-1                                                                         
 LARGEST CORRECTION TO TEMP.        1.267E-05   AT NODE          8   DOF 11
   INSTANCE: PLATE-1                                                                         
          HEAT FLUX EQUILIBRIUM NOT ACHIEVED WITHIN TOLERANCE.
 
	UNSYMMETRIC NEW DIRECT SPARSE SOLVER RUNNING ON
 	1 HOST x 1 MPI RANK PER HOST x 2 THREADS PER RANK
        NUMBER OF EQUATIONS:  65612
        NUMBER OF RHS:        1
        NUMBER OF FLOPS:      9.693e+09
        SOLVER ELAPSED TIME:  176ms

               CONVERGENCE CHECKS FOR EQUILIBRIUM ITERATION     2


 AVERAGE FORCE                      2.555E-02   TIME AVG. FORCE       1.413E-02
 LARGEST SCALED RESIDUAL FORCE      3.738E-14   AT NODE       6707   DOF  3
   INSTANCE: PLATE-1                                                                         
  CORRESPONDING RESIDUAL FORCE      3.738E-14
 LARGEST INCREMENT OF DISP.         2.548E-05   AT NODE       6707   DOF  3
   INSTANCE: PLATE-1                                                                         
 LARGEST CORRECTION TO DISP.        2.122E-09   AT NODE       6707   DOF  3
   INSTANCE: PLATE-1                                                                         
          THE FORCE     EQUILIBRIUM EQUATIONS HAVE CONVERGED

 AVERAGE HEAT FLUX                  2.798E-06   TIME AVG. HEAT FLUX   1.596E-06
 LARGEST RESIDUAL HEAT FLUX         2.044E-16   AT NODE       5362   DOF 11
   INSTANCE: PLATE-1                                                                         
 LARGEST INCREMENT OF TEMP.         1.194E-03   AT NODE          8   DOF 11
   INSTANCE: PLATE-1                                                                         
 LARGEST CORRECTION TO TEMP.        4.423E-08   AT NODE          8   DOF 11
   INSTANCE: PLATE-1                                                                         
          THE HEAT FLUX EQUILIBRIUM EQUATIONS HAVE CONVERGED

 ITERATION SUMMARY FOR THE INCREMENT:   2 TOTAL ITERATIONS, OF WHICH
   0 ARE SEVERE DISCONTINUITY ITERATIONS AND  2 ARE EQUILIBRIUM ITERATIONS.

 TIME INCREMENT COMPLETED  1.000E+04,  FRACTION OF STEP COMPLETED  8.000E-03
 STEP TIME COMPLETED       8.000E+04,  TOTAL TIME COMPLETED        8.000E+04


  INCREMENT     9 STARTS. ATTEMPT NUMBER  1, TIME INCREMENT  1.000E+04
 
	UNSYMMETRIC NEW DIRECT SPARSE SOLVER RUNNING ON
 	1 HOST x 1 MPI RANK PER HOST x 2 THREADS PER RANK
        NUMBER OF EQUATIONS:  65612
        NUMBER OF RHS:        1
        NUMBER OF FLOPS:      9.693e+09
        SOLVER ELAPSED TIME:  159ms

               CONVERGENCE CHECKS FOR EQUILIBRIUM ITERATION     1


 AVERAGE FORCE                      2.875E-02   TIME AVG. FORCE       1.576E-02
 LARGEST SCALED RESIDUAL FORCE      2.060E-11   AT NODE       6707   DOF  3
   INSTANCE: PLATE-1                                                                         
  CORRESPONDING RESIDUAL FORCE      2.060E-11
 LARGEST INCREMENT OF DISP.         2.942E-05   AT NODE       6707   DOF  3
   INSTANCE: PLATE-1                                                                         
 LARGEST CORRECTION TO DISP.        3.943E-06   AT NODE       6707   DOF  3
   INSTANCE: PLATE-1                                                                         
          THE FORCE     EQUILIBRIUM RESPONSE WAS LINEAR IN THIS INCREMENT

 AVERAGE HEAT FLUX                  3.200E-06   TIME AVG. HEAT FLUX   1.796E-06
 LARGEST RESIDUAL HEAT FLUX         2.425E-16   AT NODE       2768   DOF 11
   INSTANCE: PLATE-1                                                                         
 LARGEST INCREMENT OF TEMP.         1.207E-03   AT NODE          8   DOF 11
   INSTANCE: PLATE-1                                                                         
 LARGEST CORRECTION TO TEMP.        1.283E-05   AT NODE          8   DOF 11
   INSTANCE: PLATE-1                                                                         
          THE HEAT FLUX EQUILIBRIUM RESPONSE WAS LINEAR IN THIS INCREMENT

 ITERATION SUMMARY FOR THE INCREMENT:   1 TOTAL ITERATIONS, OF WHICH
   0 ARE SEVERE DISCONTINUITY ITERATIONS AND  1 ARE EQUILIBRIUM ITERATIONS.

 TIME INCREMENT COMPLETED  1.000E+04,  FRACTION OF STEP COMPLETED  9.000E-03
 STEP TIME COMPLETED       9.000E+04,  TOTAL TIME COMPLETED        9.000E+04


  INCREMENT    10 STARTS. ATTEMPT NUMBER  1, TIME INCREMENT  1.000E+04
 
	UNSYMMETRIC NEW DIRECT SPARSE SOLVER RUNNING ON
 	1 HOST x 1 MPI RANK PER HOST x 2 THREADS PER RANK
        NUMBER OF EQUATIONS:  65612
        NUMBER OF RHS:        1
        NUMBER OF FLOPS:      9.693e+09
        SOLVER ELAPSED TIME:  14ms

               CONVERGENCE CHECKS FOR EQUILIBRIUM ITERATION     1


 AVERAGE FORCE                      3.194E-02   TIME AVG. FORCE       1.738E-02
 LARGEST SCALED RESIDUAL FORCE      1.297E-10   AT NODE       6707   DOF  3
   INSTANCE: PLATE-1                                                                         
  CORRESPONDING RESIDUAL FORCE      1.297E-10
 LARGEST INCREMENT OF DISP.         3.337E-05   AT NODE       6707   DOF  3
   INSTANCE: PLATE-1                                                                         
 LARGEST CORRECTION TO DISP.        3.948E-06   AT NODE       6707   DOF  3
   INSTANCE: PLATE-1                                                                         
          THE FORCE     EQUILIBRIUM RESPONSE WAS LINEAR IN THIS INCREMENT

 AVERAGE HEAT FLUX                  3.603E-06   TIME AVG. HEAT FLUX   1.997E-06
 LARGEST RESIDUAL HEAT FLUX         1.175E-07   AT NODE          8   DOF 11
   INSTANCE: PLATE-1                                                                         
 LARGEST INCREMENT OF TEMP.         1.220E-03   AT NODE          8   DOF 11
   INSTANCE: PLATE-1                                                                         
 LARGEST CORRECTION TO TEMP.        1.290E-05   AT NODE          8   DOF 11
   INSTANCE: PLATE-1                                                                         
          HEAT FLUX EQUILIBRIUM NOT ACHIEVED WITHIN TOLERANCE.
 
	UNSYMMETRIC NEW DIRECT SPARSE SOLVER RUNNING ON
 	1 HOST x 1 MPI RANK PER HOST x 2 THREADS PER RANK
        NUMBER OF EQUATIONS:  65612
        NUMBER OF RHS:        1
        NUMBER OF FLOPS:      9.693e+09
        SOLVER ELAPSED TIME:  164ms

               CONVERGENCE CHECKS FOR EQUILIBRIUM ITERATION     2


 AVERAGE FORCE                      3.194E-02   TIME AVG. FORCE       1.738E-02
 LARGEST SCALED RESIDUAL FORCE      6.188E-14   AT NODE       6707   DOF  3
   INSTANCE: PLATE-1                                                                         
  CORRESPONDING RESIDUAL FORCE      6.188E-14
 LARGEST INCREMENT OF DISP.         3.337E-05   AT NODE       6707   DOF  3
   INSTANCE: PLATE-1                                                                         
 LARGEST CORRECTION TO DISP.        2.222E-09   AT NODE       6707   DOF  3
   INSTANCE: PLATE-1                                                                         
          THE FORCE     EQUILIBRIUM EQUATIONS HAVE CONVERGED

 AVERAGE HEAT FLUX                  3.603E-06   TIME AVG. HEAT FLUX   1.997E-06
 LARGEST RESIDUAL HEAT FLUX        -2.122E-16   AT NODE       1249   DOF 11
   INSTANCE: PLATE-1                                                                         
 LARGEST INCREMENT OF TEMP.         1.220E-03   AT NODE          8   DOF 11
   INSTANCE: PLATE-1                                                                         
 LARGEST CORRECTION TO TEMP.        4.499E-08   AT NODE          8   DOF 11
   INSTANCE: PLATE-1                                                                         
          THE HEAT FLUX EQUILIBRIUM EQUATIONS HAVE CONVERGED

 ITERATION SUMMARY FOR THE INCREMENT:   2 TOTAL ITERATIONS, OF WHICH
   0 ARE SEVERE DISCONTINUITY ITERATIONS AND  2 ARE EQUILIBRIUM ITERATIONS.

 TIME INCREMENT COMPLETED  1.000E+04,  FRACTION OF STEP COMPLETED  1.000E-02
 STEP TIME COMPLETED       1.000E+05,  TOTAL TIME COMPLETED        1.000E+05


  INCREMENT    11 STARTS. ATTEMPT NUMBER  1, TIME INCREMENT  1.000E+04
 
	UNSYMMETRIC NEW DIRECT SPARSE SOLVER RUNNING ON
 	1 HOST x 1 MPI RANK PER HOST x 2 THREADS PER RANK
        NUMBER OF EQUATIONS:  65612
        NUMBER OF RHS:        1
        NUMBER OF FLOPS:      9.693e+09
        SOLVER ELAPSED TIME:  163ms

               CONVERGENCE CHECKS FOR EQUILIBRIUM ITERATION     1


 AVERAGE FORCE                      3.513E-02   TIME AVG. FORCE       1.899E-02
 LARGEST SCALED RESIDUAL FORCE      3.223E-11   AT NODE       6707   DOF  3
   INSTANCE: PLATE-1                                                                         
  CORRESPONDING RESIDUAL FORCE      3.223E-11
 LARGEST INCREMENT OF DISP.         3.733E-05   AT NODE       6707   DOF  3
   INSTANCE: PLATE-1                                                                         
 LARGEST CORRECTION TO DISP.        3.955E-06   AT NODE       6707   DOF  3
   INSTANCE: PLATE-1                                                                         
          THE FORCE     EQUILIBRIUM RESPONSE WAS LINEAR IN THIS INCREMENT

 AVERAGE HEAT FLUX                  4.007E-06   TIME AVG. HEAT FLUX   2.198E-06
 LARGEST RESIDUAL HEAT FLUX         2.630E-16   AT NODE       2816   DOF 11
   INSTANCE: PLATE-1                                                                         
 LARGEST INCREMENT OF TEMP.         1.233E-03   AT NODE          8   DOF 11
   INSTANCE: PLATE-1                                                                         
 LARGEST CORRECTION TO TEMP.        1.307E-05   AT NODE          8   DOF 11
   INSTANCE: PLATE-1                                                                         
          THE HEAT FLUX EQUILIBRIUM RESPONSE WAS LINEAR IN THIS INCREMENT

 ITERATION SUMMARY FOR THE INCREMENT:   1 TOTAL ITERATIONS, OF WHICH
   0 ARE SEVERE DISCONTINUITY ITERATIONS AND  1 ARE EQUILIBRIUM ITERATIONS.

 TIME INCREMENT COMPLETED  1.000E+04,  FRACTION OF STEP COMPLETED  1.100E-02
 STEP TIME COMPLETED       1.100E+05,  TOTAL TIME COMPLETED        1.100E+05


  INCREMENT    12 STARTS. ATTEMPT NUMBER  1, TIME INCREMENT  1.000E+04
 
	UNSYMMETRIC NEW DIRECT SPARSE SOLVER RUNNING ON
 	1 HOST x 1 MPI RANK PER HOST x 2 THREADS PER RANK
        NUMBER OF EQUATIONS:  65612
        NUMBER OF RHS:        1
        NUMBER OF FLOPS:      9.693e+09
        SOLVER ELAPSED TIME:  17ms

               CONVERGENCE CHECKS FOR EQUILIBRIUM ITERATION     1


 AVERAGE FORCE                      3.833E-02   TIME AVG. FORCE       2.060E-02
 LARGEST SCALED RESIDUAL FORCE      1.439E-10   AT NODE       6707   DOF  3
   INSTANCE: PLATE-1                                                                         
  CORRESPONDING RESIDUAL FORCE      1.439E-10
 LARGEST INCREMENT OF DISP.         4.129E-05   AT NODE       6707   DOF  3
   INSTANCE: PLATE-1                                                                         
 LARGEST CORRECTION TO DISP.        3.961E-06   AT NODE       6707   DOF  3
   INSTANCE: PLATE-1                                                                         
          THE FORCE     EQUILIBRIUM RESPONSE WAS LINEAR IN THIS INCREMENT

 AVERAGE HEAT FLUX                  4.412E-06   TIME AVG. HEAT FLUX   2.399E-06
 LARGEST RESIDUAL HEAT FLUX         1.193E-07   AT NODE          8   DOF 11
   INSTANCE: PLATE-1                                                                         
 LARGEST INCREMENT OF TEMP.         1.246E-03   AT NODE          8   DOF 11
   INSTANCE: PLATE-1                                                                         
 LARGEST CORRECTION TO TEMP.        1.314E-05   AT NODE          8   DOF 11
   INSTANCE: PLATE-1                                                                         
          HEAT FLUX EQUILIBRIUM NOT ACHIEVED WITHIN TOLERANCE.
 
	UNSYMMETRIC NEW DIRECT SPARSE SOLVER RUNNING ON
 	1 HOST x 1 MPI RANK PER HOST x 2 THREADS PER RANK
        NUMBER OF EQUATIONS:  65612
        NUMBER OF RHS:        1
        NUMBER OF FLOPS:      9.693e+09
        SOLVER ELAPSED TIME:  329ms

               CONVERGENCE CHECKS FOR EQUILIBRIUM ITERATION     2


 AVERAGE FORCE                      3.833E-02   TIME AVG. FORCE       2.060E-02
 LARGEST SCALED RESIDUAL FORCE      9.255E-14   AT NODE       6707   DOF  3
   INSTANCE: PLATE-1                                                                         
  CORRESPONDING RESIDUAL FORCE      9.255E-14
 LARGEST INCREMENT OF DISP.         4.129E-05   AT NODE       6707   DOF  3
   INSTANCE: PLATE-1                                                                         
 LARGEST CORRECTION TO DISP.        2.349E-09   AT NODE       6707   DOF  3
   INSTANCE: PLATE-1                                                                         
          THE FORCE     EQUILIBRIUM EQUATIONS HAVE CONVERGED

 AVERAGE HEAT FLUX                  4.412E-06   TIME AVG. HEAT FLUX   2.399E-06
 LARGEST RESIDUAL HEAT FLUX         2.387E-16   AT NODE       9511   DOF 11
   INSTANCE: PLATE-1                                                                         
 LARGEST INCREMENT OF TEMP.         1.246E-03   AT NODE          8   DOF 11
   INSTANCE: PLATE-1                                                                         
 LARGEST CORRECTION TO TEMP.        4.577E-08   AT NODE          8   DOF 11
   INSTANCE: PLATE-1                                                                         
          THE HEAT FLUX EQUILIBRIUM EQUATIONS HAVE CONVERGED

 ITERATION SUMMARY FOR THE INCREMENT:   2 TOTAL ITERATIONS, OF WHICH
   0 ARE SEVERE DISCONTINUITY ITERATIONS AND  2 ARE EQUILIBRIUM ITERATIONS.

 TIME INCREMENT COMPLETED  1.000E+04,  FRACTION OF STEP COMPLETED  1.200E-02
 STEP TIME COMPLETED       1.200E+05,  TOTAL TIME COMPLETED        1.200E+05


  INCREMENT    13 STARTS. ATTEMPT NUMBER  1, TIME INCREMENT  1.000E+04
 
	UNSYMMETRIC NEW DIRECT SPARSE SOLVER RUNNING ON
 	1 HOST x 1 MPI RANK PER HOST x 2 THREADS PER RANK
        NUMBER OF EQUATIONS:  65612
        NUMBER OF RHS:        1
        NUMBER OF FLOPS:      9.693e+09
        SOLVER ELAPSED TIME:  298ms

               CONVERGENCE CHECKS FOR EQUILIBRIUM ITERATION     1


 AVERAGE FORCE                      4.152E-02   TIME AVG. FORCE       2.221E-02
 LARGEST SCALED RESIDUAL FORCE      4.648E-11   AT NODE       6707   DOF  3
   INSTANCE: PLATE-1                                                                         
  CORRESPONDING RESIDUAL FORCE      4.648E-11
 LARGEST INCREMENT OF DISP.         4.526E-05   AT NODE       6707   DOF  3
   INSTANCE: PLATE-1                                                                         
 LARGEST CORRECTION TO DISP.        3.968E-06   AT NODE       6707   DOF  3
   INSTANCE: PLATE-1                                                                         
          THE FORCE     EQUILIBRIUM RESPONSE WAS LINEAR IN THIS INCREMENT

 AVERAGE HEAT FLUX                  4.818E-06   TIME AVG. HEAT FLUX   2.601E-06
 LARGEST RESIDUAL HEAT FLUX         2.549E-16   AT NODE       1018   DOF 11
   INSTANCE: PLATE-1                                                                         
 LARGEST INCREMENT OF TEMP.         1.260E-03   AT NODE          8   DOF 11
   INSTANCE: PLATE-1                                                                         
 LARGEST CORRECTION TO TEMP.        1.330E-05   AT NODE          8   DOF 11
   INSTANCE: PLATE-1                                                                         
          THE HEAT FLUX EQUILIBRIUM RESPONSE WAS LINEAR IN THIS INCREMENT

 ITERATION SUMMARY FOR THE INCREMENT:   1 TOTAL ITERATIONS, OF WHICH
   0 ARE SEVERE DISCONTINUITY ITERATIONS AND  1 ARE EQUILIBRIUM ITERATIONS.

 TIME INCREMENT COMPLETED  1.000E+04,  FRACTION OF STEP COMPLETED  1.300E-02
 STEP TIME COMPLETED       1.300E+05,  TOTAL TIME COMPLETED        1.300E+05


  INCREMENT    14 STARTS. ATTEMPT NUMBER  1, TIME INCREMENT  1.000E+04
 
	UNSYMMETRIC NEW DIRECT SPARSE SOLVER RUNNING ON
 	1 HOST x 1 MPI RANK PER HOST x 2 THREADS PER RANK
        NUMBER OF EQUATIONS:  65612
        NUMBER OF RHS:        1
        NUMBER OF FLOPS:      9.693e+09
        SOLVER ELAPSED TIME:  18ms

               CONVERGENCE CHECKS FOR EQUILIBRIUM ITERATION     1


 AVERAGE FORCE                      4.471E-02   TIME AVG. FORCE       2.382E-02
 LARGEST SCALED RESIDUAL FORCE      1.607E-10   AT NODE       6707   DOF  3
   INSTANCE: PLATE-1                                                                         
  CORRESPONDING RESIDUAL FORCE      1.607E-10
 LARGEST INCREMENT OF DISP.         4.923E-05   AT NODE       6707   DOF  3
   INSTANCE: PLATE-1                                                                         
 LARGEST CORRECTION TO DISP.        3.974E-06   AT NODE       6707   DOF  3
   INSTANCE: PLATE-1                                                                         
          THE FORCE     EQUILIBRIUM RESPONSE WAS LINEAR IN THIS INCREMENT

 AVERAGE HEAT FLUX                  5.224E-06   TIME AVG. HEAT FLUX   2.803E-06
 LARGEST RESIDUAL HEAT FLUX         1.210E-07   AT NODE          8   DOF 11
   INSTANCE: PLATE-1                                                                         
 LARGEST INCREMENT OF TEMP.         1.273E-03   AT NODE          8   DOF 11
   INSTANCE: PLATE-1                                                                         
 LARGEST CORRECTION TO TEMP.        1.338E-05   AT NODE          8   DOF 11
   INSTANCE: PLATE-1                                                                         
          HEAT FLUX EQUILIBRIUM NOT ACHIEVED WITHIN TOLERANCE.
 
	UNSYMMETRIC NEW DIRECT SPARSE SOLVER RUNNING ON
 	1 HOST x 1 MPI RANK PER HOST x 2 THREADS PER RANK
        NUMBER OF EQUATIONS:  65612
        NUMBER OF RHS:        1
        NUMBER OF FLOPS:      9.693e+09
        SOLVER ELAPSED TIME:  334ms

               CONVERGENCE CHECKS FOR EQUILIBRIUM ITERATION     2


 AVERAGE FORCE                      4.471E-02   TIME AVG. FORCE       2.382E-02
 LARGEST SCALED RESIDUAL FORCE      1.294E-13   AT NODE       6707   DOF  3
   INSTANCE: PLATE-1                                                                         
  CORRESPONDING RESIDUAL FORCE      1.294E-13
 LARGEST INCREMENT OF DISP.         4.924E-05   AT NODE       6707   DOF  3
   INSTANCE: PLATE-1                                                                         
 LARGEST CORRECTION TO DISP.        2.504E-09   AT NODE       6707   DOF  3
   INSTANCE: PLATE-1                                                                         
          THE FORCE     EQUILIBRIUM EQUATIONS HAVE CONVERGED

 AVERAGE HEAT FLUX                  5.224E-06   TIME AVG. HEAT FLUX   2.803E-06
 LARGEST RESIDUAL HEAT FLUX         2.359E-16   AT NODE       6434   DOF 11
   INSTANCE: PLATE-1                                                                         
 LARGEST INCREMENT OF TEMP.         1.273E-03   AT NODE          8   DOF 11
   INSTANCE: PLATE-1                                                                         
 LARGEST CORRECTION TO TEMP.        4.655E-08   AT NODE          8   DOF 11
   INSTANCE: PLATE-1                                                                         
          THE HEAT FLUX EQUILIBRIUM EQUATIONS HAVE CONVERGED

 ITERATION SUMMARY FOR THE INCREMENT:   2 TOTAL ITERATIONS, OF WHICH
   0 ARE SEVERE DISCONTINUITY ITERATIONS AND  2 ARE EQUILIBRIUM ITERATIONS.

 TIME INCREMENT COMPLETED  1.000E+04,  FRACTION OF STEP COMPLETED  1.400E-02
 STEP TIME COMPLETED       1.400E+05,  TOTAL TIME COMPLETED        1.400E+05


  INCREMENT    15 STARTS. ATTEMPT NUMBER  1, TIME INCREMENT  1.000E+04
 
	UNSYMMETRIC NEW DIRECT SPARSE SOLVER RUNNING ON
 	1 HOST x 1 MPI RANK PER HOST x 2 THREADS PER RANK
        NUMBER OF EQUATIONS:  65612
        NUMBER OF RHS:        1
        NUMBER OF FLOPS:      9.693e+09
        SOLVER ELAPSED TIME:  340ms

               CONVERGENCE CHECKS FOR EQUILIBRIUM ITERATION     1


 AVERAGE FORCE                      4.790E-02   TIME AVG. FORCE       2.542E-02
 LARGEST SCALED RESIDUAL FORCE      6.335E-11   AT NODE       6707   DOF  3
   INSTANCE: PLATE-1                                                                         
  CORRESPONDING RESIDUAL FORCE      6.335E-11
 LARGEST INCREMENT OF DISP.         5.322E-05   AT NODE       6707   DOF  3
   INSTANCE: PLATE-1                                                                         
 LARGEST CORRECTION TO DISP.        3.981E-06   AT NODE       6707   DOF  3
   INSTANCE: PLATE-1                                                                         
          THE FORCE     EQUILIBRIUM RESPONSE WAS LINEAR IN THIS INCREMENT

 AVERAGE HEAT FLUX                  5.631E-06   TIME AVG. HEAT FLUX   3.005E-06
 LARGEST RESIDUAL HEAT FLUX         2.030E-16   AT NODE       3821   DOF 11
   INSTANCE: PLATE-1                                                                         
 LARGEST INCREMENT OF TEMP.         1.287E-03   AT NODE          8   DOF 11
   INSTANCE: PLATE-1                                                                         
 LARGEST CORRECTION TO TEMP.        1.354E-05   AT NODE          8   DOF 11
   INSTANCE: PLATE-1                                                                         
          THE HEAT FLUX EQUILIBRIUM RESPONSE WAS LINEAR IN THIS INCREMENT

 ITERATION SUMMARY FOR THE INCREMENT:   1 TOTAL ITERATIONS, OF WHICH
   0 ARE SEVERE DISCONTINUITY ITERATIONS AND  1 ARE EQUILIBRIUM ITERATIONS.

 TIME INCREMENT COMPLETED  1.000E+04,  FRACTION OF STEP COMPLETED  1.500E-02
 STEP TIME COMPLETED       1.500E+05,  TOTAL TIME COMPLETED        1.500E+05


  INCREMENT    16 STARTS. ATTEMPT NUMBER  1, TIME INCREMENT  1.000E+04
 
	UNSYMMETRIC NEW DIRECT SPARSE SOLVER RUNNING ON
 	1 HOST x 1 MPI RANK PER HOST x 2 THREADS PER RANK
        NUMBER OF EQUATIONS:  65612
        NUMBER OF RHS:        1
        NUMBER OF FLOPS:      9.693e+09
        SOLVER ELAPSED TIME:  19ms

               CONVERGENCE CHECKS FOR EQUILIBRIUM ITERATION     1


 AVERAGE FORCE                      5.109E-02   TIME AVG. FORCE       2.703E-02
 LARGEST SCALED RESIDUAL FORCE      2.002E-10   AT NODE      11094   DOF  2
   INSTANCE: PLATE-1                                                                         
  CORRESPONDING RESIDUAL FORCE      2.002E-10
 LARGEST INCREMENT OF DISP.         5.720E-05   AT NODE       6707   DOF  3
   INSTANCE: PLATE-1                                                                         
 LARGEST CORRECTION TO DISP.        3.987E-06   AT NODE       6707   DOF  3
   INSTANCE: PLATE-1                                                                         
          THE FORCE     EQUILIBRIUM RESPONSE WAS LINEAR IN THIS INCREMENT

 AVERAGE HEAT FLUX                  6.038E-06   TIME AVG. HEAT FLUX   3.207E-06
 LARGEST RESIDUAL HEAT FLUX         1.227E-07   AT NODE          8   DOF 11
   INSTANCE: PLATE-1                                                                         
 LARGEST INCREMENT OF TEMP.         1.300E-03   AT NODE          8   DOF 11
   INSTANCE: PLATE-1                                                                         
 LARGEST CORRECTION TO TEMP.        1.362E-05   AT NODE          8   DOF 11
   INSTANCE: PLATE-1                                                                         
          HEAT FLUX EQUILIBRIUM NOT ACHIEVED WITHIN TOLERANCE.
 
	UNSYMMETRIC NEW DIRECT SPARSE SOLVER RUNNING ON
 	1 HOST x 1 MPI RANK PER HOST x 2 THREADS PER RANK
        NUMBER OF EQUATIONS:  65612
        NUMBER OF RHS:        1
        NUMBER OF FLOPS:      9.693e+09
        SOLVER ELAPSED TIME:  334ms

               CONVERGENCE CHECKS FOR EQUILIBRIUM ITERATION     2


 AVERAGE FORCE                      5.109E-02   TIME AVG. FORCE       2.703E-02
 LARGEST SCALED RESIDUAL FORCE      1.724E-13   AT NODE       6707   DOF  3
   INSTANCE: PLATE-1                                                                         
  CORRESPONDING RESIDUAL FORCE      1.724E-13
 LARGEST INCREMENT OF DISP.         5.721E-05   AT NODE       6707   DOF  3
   INSTANCE: PLATE-1                                                                         
 LARGEST CORRECTION TO DISP.        2.686E-09   AT NODE       6707   DOF  3
   INSTANCE: PLATE-1                                                                         
          THE FORCE     EQUILIBRIUM EQUATIONS HAVE CONVERGED

 AVERAGE HEAT FLUX                  6.038E-06   TIME AVG. HEAT FLUX   3.207E-06
 LARGEST RESIDUAL HEAT FLUX        -2.373E-16   AT NODE       4678   DOF 11
   INSTANCE: PLATE-1                                                                         
 LARGEST INCREMENT OF TEMP.         1.300E-03   AT NODE          8   DOF 11
   INSTANCE: PLATE-1                                                                         
 LARGEST CORRECTION TO TEMP.        4.733E-08   AT NODE          8   DOF 11
   INSTANCE: PLATE-1                                                                         
          THE HEAT FLUX EQUILIBRIUM EQUATIONS HAVE CONVERGED

 ITERATION SUMMARY FOR THE INCREMENT:   2 TOTAL ITERATIONS, OF WHICH
   0 ARE SEVERE DISCONTINUITY ITERATIONS AND  2 ARE EQUILIBRIUM ITERATIONS.

 TIME INCREMENT COMPLETED  1.000E+04,  FRACTION OF STEP COMPLETED  1.600E-02
 STEP TIME COMPLETED       1.600E+05,  TOTAL TIME COMPLETED        1.600E+05


  INCREMENT    17 STARTS. ATTEMPT NUMBER  1, TIME INCREMENT  1.000E+04
 
	UNSYMMETRIC NEW DIRECT SPARSE SOLVER RUNNING ON
 	1 HOST x 1 MPI RANK PER HOST x 2 THREADS PER RANK
        NUMBER OF EQUATIONS:  65612
        NUMBER OF RHS:        1
        NUMBER OF FLOPS:      9.693e+09
        SOLVER ELAPSED TIME:  337ms

               CONVERGENCE CHECKS FOR EQUILIBRIUM ITERATION     1


 AVERAGE FORCE                      5.429E-02   TIME AVG. FORCE       2.863E-02
 LARGEST SCALED RESIDUAL FORCE      8.284E-11   AT NODE       6707   DOF  3
   INSTANCE: PLATE-1                                                                         
  CORRESPONDING RESIDUAL FORCE      8.284E-11
 LARGEST INCREMENT OF DISP.         6.120E-05   AT NODE       6707   DOF  3
   INSTANCE: PLATE-1                                                                         
 LARGEST CORRECTION TO DISP.        3.994E-06   AT NODE       6707   DOF  3
   INSTANCE: PLATE-1                                                                         
          THE FORCE     EQUILIBRIUM RESPONSE WAS LINEAR IN THIS INCREMENT

 AVERAGE HEAT FLUX                  6.447E-06   TIME AVG. HEAT FLUX   3.409E-06
 LARGEST RESIDUAL HEAT FLUX         2.122E-16   AT NODE       4859   DOF 11
   INSTANCE: PLATE-1                                                                         
 LARGEST INCREMENT OF TEMP.         1.314E-03   AT NODE          8   DOF 11
   INSTANCE: PLATE-1                                                                         
 LARGEST CORRECTION TO TEMP.        1.379E-05   AT NODE          8   DOF 11
   INSTANCE: PLATE-1                                                                         
          THE HEAT FLUX EQUILIBRIUM RESPONSE WAS LINEAR IN THIS INCREMENT

 ITERATION SUMMARY FOR THE INCREMENT:   1 TOTAL ITERATIONS, OF WHICH
   0 ARE SEVERE DISCONTINUITY ITERATIONS AND  1 ARE EQUILIBRIUM ITERATIONS.

 TIME INCREMENT COMPLETED  1.000E+04,  FRACTION OF STEP COMPLETED  1.700E-02
 STEP TIME COMPLETED       1.700E+05,  TOTAL TIME COMPLETED        1.700E+05


  INCREMENT    18 STARTS. ATTEMPT NUMBER  1, TIME INCREMENT  1.000E+04
 
	UNSYMMETRIC NEW DIRECT SPARSE SOLVER RUNNING ON
 	1 HOST x 1 MPI RANK PER HOST x 2 THREADS PER RANK
        NUMBER OF EQUATIONS:  65612
        NUMBER OF RHS:        1
        NUMBER OF FLOPS:      9.693e+09
        SOLVER ELAPSED TIME:  20ms

               CONVERGENCE CHECKS FOR EQUILIBRIUM ITERATION     1


 AVERAGE FORCE                      5.748E-02   TIME AVG. FORCE       3.023E-02
 LARGEST SCALED RESIDUAL FORCE      2.634E-10   AT NODE      11094   DOF  2
   INSTANCE: PLATE-1                                                                         
  CORRESPONDING RESIDUAL FORCE      2.634E-10
 LARGEST INCREMENT OF DISP.         6.520E-05   AT NODE       6707   DOF  3
   INSTANCE: PLATE-1                                                                         
 LARGEST CORRECTION TO DISP.        4.001E-06   AT NODE       6707   DOF  3
   INSTANCE: PLATE-1                                                                         
          THE FORCE     EQUILIBRIUM RESPONSE WAS LINEAR IN THIS INCREMENT

 AVERAGE HEAT FLUX                  6.856E-06   TIME AVG. HEAT FLUX   3.612E-06
 LARGEST RESIDUAL HEAT FLUX         1.244E-07   AT NODE          8   DOF 11
   INSTANCE: PLATE-1                                                                         
 LARGEST INCREMENT OF TEMP.         1.328E-03   AT NODE          8   DOF 11
   INSTANCE: PLATE-1                                                                         
 LARGEST CORRECTION TO TEMP.        1.386E-05   AT NODE          8   DOF 11
   INSTANCE: PLATE-1                                                                         
          HEAT FLUX EQUILIBRIUM NOT ACHIEVED WITHIN TOLERANCE.
 
	UNSYMMETRIC NEW DIRECT SPARSE SOLVER RUNNING ON
 	1 HOST x 1 MPI RANK PER HOST x 2 THREADS PER RANK
        NUMBER OF EQUATIONS:  65612
        NUMBER OF RHS:        1
        NUMBER OF FLOPS:      9.693e+09
        SOLVER ELAPSED TIME:  317ms

               CONVERGENCE CHECKS FOR EQUILIBRIUM ITERATION     2


 AVERAGE FORCE                      5.748E-02   TIME AVG. FORCE       3.023E-02
 LARGEST SCALED RESIDUAL FORCE      2.215E-13   AT NODE       6707   DOF  3
   INSTANCE: PLATE-1                                                                         
  CORRESPONDING RESIDUAL FORCE      2.215E-13
 LARGEST INCREMENT OF DISP.         6.520E-05   AT NODE       6707   DOF  3
   INSTANCE: PLATE-1                                                                         
 LARGEST CORRECTION TO DISP.        2.896E-09   AT NODE       6707   DOF  3
   INSTANCE: PLATE-1                                                                         
          THE FORCE     EQUILIBRIUM EQUATIONS HAVE CONVERGED

 AVERAGE HEAT FLUX                  6.856E-06   TIME AVG. HEAT FLUX   3.612E-06
 LARGEST RESIDUAL HEAT FLUX         2.082E-16   AT NODE       3527   DOF 11
   INSTANCE: PLATE-1                                                                         
 LARGEST INCREMENT OF TEMP.         1.328E-03   AT NODE          8   DOF 11
   INSTANCE: PLATE-1                                                                         
 LARGEST CORRECTION TO TEMP.        4.812E-08   AT NODE          8   DOF 11
   INSTANCE: PLATE-1                                                                         
          THE HEAT FLUX EQUILIBRIUM EQUATIONS HAVE CONVERGED

 ITERATION SUMMARY FOR THE INCREMENT:   2 TOTAL ITERATIONS, OF WHICH
   0 ARE SEVERE DISCONTINUITY ITERATIONS AND  2 ARE EQUILIBRIUM ITERATIONS.

 TIME INCREMENT COMPLETED  1.000E+04,  FRACTION OF STEP COMPLETED  1.800E-02
 STEP TIME COMPLETED       1.800E+05,  TOTAL TIME COMPLETED        1.800E+05


  INCREMENT    19 STARTS. ATTEMPT NUMBER  1, TIME INCREMENT  1.000E+04
 
	UNSYMMETRIC NEW DIRECT SPARSE SOLVER RUNNING ON
 	1 HOST x 1 MPI RANK PER HOST x 2 THREADS PER RANK
        NUMBER OF EQUATIONS:  65612
        NUMBER OF RHS:        1
        NUMBER OF FLOPS:      9.693e+09
        SOLVER ELAPSED TIME:  253ms

               CONVERGENCE CHECKS FOR EQUILIBRIUM ITERATION     1


 AVERAGE FORCE                      6.067E-02   TIME AVG. FORCE       3.184E-02
 LARGEST SCALED RESIDUAL FORCE      1.049E-10   AT NODE       6707   DOF  3
   INSTANCE: PLATE-1                                                                         
  CORRESPONDING RESIDUAL FORCE      1.049E-10
 LARGEST INCREMENT OF DISP.         6.921E-05   AT NODE       6707   DOF  3
   INSTANCE: PLATE-1                                                                         
 LARGEST CORRECTION TO DISP.        4.007E-06   AT NODE       6707   DOF  3
   INSTANCE: PLATE-1                                                                         
          THE FORCE     EQUILIBRIUM RESPONSE WAS LINEAR IN THIS INCREMENT

 AVERAGE HEAT FLUX                  7.266E-06   TIME AVG. HEAT FLUX   3.815E-06
 LARGEST RESIDUAL HEAT FLUX         2.215E-16   AT NODE       1903   DOF 11
   INSTANCE: PLATE-1                                                                         
 LARGEST INCREMENT OF TEMP.         1.342E-03   AT NODE          8   DOF 11
   INSTANCE: PLATE-1                                                                         
 LARGEST CORRECTION TO TEMP.        1.403E-05   AT NODE          8   DOF 11
   INSTANCE: PLATE-1                                                                         
          THE HEAT FLUX EQUILIBRIUM RESPONSE WAS LINEAR IN THIS INCREMENT

 ITERATION SUMMARY FOR THE INCREMENT:   1 TOTAL ITERATIONS, OF WHICH
   0 ARE SEVERE DISCONTINUITY ITERATIONS AND  1 ARE EQUILIBRIUM ITERATIONS.

 TIME INCREMENT COMPLETED  1.000E+04,  FRACTION OF STEP COMPLETED  1.900E-02
 STEP TIME COMPLETED       1.900E+05,  TOTAL TIME COMPLETED        1.900E+05


  INCREMENT    20 STARTS. ATTEMPT NUMBER  1, TIME INCREMENT  1.000E+04
 
	UNSYMMETRIC NEW DIRECT SPARSE SOLVER RUNNING ON
 	1 HOST x 1 MPI RANK PER HOST x 2 THREADS PER RANK
        NUMBER OF EQUATIONS:  65612
        NUMBER OF RHS:        1
        NUMBER OF FLOPS:      9.693e+09
        SOLVER ELAPSED TIME:  17ms

               CONVERGENCE CHECKS FOR EQUILIBRIUM ITERATION     1


 AVERAGE FORCE                      6.386E-02   TIME AVG. FORCE       3.344E-02
 LARGEST SCALED RESIDUAL FORCE      3.354E-10   AT NODE      11094   DOF  2
   INSTANCE: PLATE-1                                                                         
  CORRESPONDING RESIDUAL FORCE      3.354E-10
 LARGEST INCREMENT OF DISP.         7.323E-05   AT NODE       6707   DOF  3
   INSTANCE: PLATE-1                                                                         
 LARGEST CORRECTION TO DISP.        4.015E-06   AT NODE       6707   DOF  3
   INSTANCE: PLATE-1                                                                         
 ESTIMATE OF DISP.    CORRECTION    4.201E-10
 FORCE     EQUILIB. ACCEPTED BASED ON SMALL RESIDUAL AND ESTIMATED CORRECTION

 AVERAGE HEAT FLUX                  7.675E-06   TIME AVG. HEAT FLUX   4.018E-06
 LARGEST RESIDUAL HEAT FLUX         1.261E-07   AT NODE          8   DOF 11
   INSTANCE: PLATE-1                                                                         
 LARGEST INCREMENT OF TEMP.         1.356E-03   AT NODE          8   DOF 11
   INSTANCE: PLATE-1                                                                         
 LARGEST CORRECTION TO TEMP.        1.411E-05   AT NODE          8   DOF 11
   INSTANCE: PLATE-1                                                                         
          HEAT FLUX EQUILIBRIUM NOT ACHIEVED WITHIN TOLERANCE.
 
	UNSYMMETRIC NEW DIRECT SPARSE SOLVER RUNNING ON
 	1 HOST x 1 MPI RANK PER HOST x 2 THREADS PER RANK
        NUMBER OF EQUATIONS:  65612
        NUMBER OF RHS:        1
        NUMBER OF FLOPS:      9.693e+09
        SOLVER ELAPSED TIME:  345ms

               CONVERGENCE CHECKS FOR EQUILIBRIUM ITERATION     2


 AVERAGE FORCE                      6.386E-02   TIME AVG. FORCE       3.344E-02
 LARGEST SCALED RESIDUAL FORCE      2.768E-13   AT NODE       6707   DOF  3
   INSTANCE: PLATE-1                                                                         
  CORRESPONDING RESIDUAL FORCE      2.768E-13
 LARGEST INCREMENT OF DISP.         7.323E-05   AT NODE       6707   DOF  3
   INSTANCE: PLATE-1                                                                         
 LARGEST CORRECTION TO DISP.        3.135E-09   AT NODE       6707   DOF  3
   INSTANCE: PLATE-1                                                                         
          THE FORCE     EQUILIBRIUM EQUATIONS HAVE CONVERGED

 AVERAGE HEAT FLUX                  7.676E-06   TIME AVG. HEAT FLUX   4.018E-06
 LARGEST RESIDUAL HEAT FLUX         1.994E-16   AT NODE       5313   DOF 11
   INSTANCE: PLATE-1                                                                         
 LARGEST INCREMENT OF TEMP.         1.356E-03   AT NODE          8   DOF 11
   INSTANCE: PLATE-1                                                                         
 LARGEST CORRECTION TO TEMP.        4.892E-08   AT NODE          8   DOF 11
   INSTANCE: PLATE-1                                                                         
          THE HEAT FLUX EQUILIBRIUM EQUATIONS HAVE CONVERGED

 ITERATION SUMMARY FOR THE INCREMENT:   2 TOTAL ITERATIONS, OF WHICH
   0 ARE SEVERE DISCONTINUITY ITERATIONS AND  2 ARE EQUILIBRIUM ITERATIONS.

 TIME INCREMENT COMPLETED  1.000E+04,  FRACTION OF STEP COMPLETED  2.000E-02
 STEP TIME COMPLETED       2.000E+05,  TOTAL TIME COMPLETED        2.000E+05


  INCREMENT    21 STARTS. ATTEMPT NUMBER  1, TIME INCREMENT  1.000E+04
 
	UNSYMMETRIC NEW DIRECT SPARSE SOLVER RUNNING ON
 	1 HOST x 1 MPI RANK PER HOST x 2 THREADS PER RANK
        NUMBER OF EQUATIONS:  65612
        NUMBER OF RHS:        1
        NUMBER OF FLOPS:      9.693e+09
        SOLVER ELAPSED TIME:  341ms

               CONVERGENCE CHECKS FOR EQUILIBRIUM ITERATION     1


 AVERAGE FORCE                      6.705E-02   TIME AVG. FORCE       3.504E-02
 LARGEST SCALED RESIDUAL FORCE      1.296E-10   AT NODE       6707   DOF  3
   INSTANCE: PLATE-1                                                                         
  CORRESPONDING RESIDUAL FORCE      1.296E-10
 LARGEST INCREMENT OF DISP.         7.725E-05   AT NODE       6707   DOF  3
   INSTANCE: PLATE-1                                                                         
 LARGEST CORRECTION TO DISP.        4.020E-06   AT NODE       6707   DOF  3
   INSTANCE: PLATE-1                                                                         
          THE FORCE     EQUILIBRIUM RESPONSE WAS LINEAR IN THIS INCREMENT

 AVERAGE HEAT FLUX                  8.086E-06   TIME AVG. HEAT FLUX   4.222E-06
 LARGEST RESIDUAL HEAT FLUX         2.431E-16   AT NODE       5320   DOF 11
   INSTANCE: PLATE-1                                                                         
 LARGEST INCREMENT OF TEMP.         1.370E-03   AT NODE          8   DOF 11
   INSTANCE: PLATE-1                                                                         
 LARGEST CORRECTION TO TEMP.        1.428E-05   AT NODE          8   DOF 11
   INSTANCE: PLATE-1                                                                         
          THE HEAT FLUX EQUILIBRIUM RESPONSE WAS LINEAR IN THIS INCREMENT

 ITERATION SUMMARY FOR THE INCREMENT:   1 TOTAL ITERATIONS, OF WHICH
   0 ARE SEVERE DISCONTINUITY ITERATIONS AND  1 ARE EQUILIBRIUM ITERATIONS.

 TIME INCREMENT COMPLETED  1.000E+04,  FRACTION OF STEP COMPLETED  2.100E-02
 STEP TIME COMPLETED       2.100E+05,  TOTAL TIME COMPLETED        2.100E+05


  INCREMENT    22 STARTS. ATTEMPT NUMBER  1, TIME INCREMENT  1.000E+04
 
	UNSYMMETRIC NEW DIRECT SPARSE SOLVER RUNNING ON
 	1 HOST x 1 MPI RANK PER HOST x 2 THREADS PER RANK
        NUMBER OF EQUATIONS:  65612
        NUMBER OF RHS:        1
        NUMBER OF FLOPS:      9.693e+09
        SOLVER ELAPSED TIME:  17ms

               CONVERGENCE CHECKS FOR EQUILIBRIUM ITERATION     1


 AVERAGE FORCE                      7.023E-02   TIME AVG. FORCE       3.664E-02
 LARGEST SCALED RESIDUAL FORCE      4.161E-10   AT NODE      11094   DOF  2
   INSTANCE: PLATE-1                                                                         
  CORRESPONDING RESIDUAL FORCE      4.161E-10
 LARGEST INCREMENT OF DISP.         8.128E-05   AT NODE       6707   DOF  3
   INSTANCE: PLATE-1                                                                         
 LARGEST CORRECTION TO DISP.        4.029E-06   AT NODE       6707   DOF  3
   INSTANCE: PLATE-1                                                                         
 ESTIMATE OF DISP.    CORRECTION    4.697E-10
 FORCE     EQUILIB. ACCEPTED BASED ON SMALL RESIDUAL AND ESTIMATED CORRECTION

 AVERAGE HEAT FLUX                  8.499E-06   TIME AVG. HEAT FLUX   4.425E-06
 LARGEST RESIDUAL HEAT FLUX         1.278E-07   AT NODE          8   DOF 11
   INSTANCE: PLATE-1                                                                         
 LARGEST INCREMENT OF TEMP.         1.385E-03   AT NODE          8   DOF 11
   INSTANCE: PLATE-1                                                                         
 LARGEST CORRECTION TO TEMP.        1.435E-05   AT NODE          8   DOF 11
   INSTANCE: PLATE-1                                                                         
          HEAT FLUX EQUILIBRIUM NOT ACHIEVED WITHIN TOLERANCE.
 
	UNSYMMETRIC NEW DIRECT SPARSE SOLVER RUNNING ON
 	1 HOST x 1 MPI RANK PER HOST x 2 THREADS PER RANK
        NUMBER OF EQUATIONS:  65612
        NUMBER OF RHS:        1
        NUMBER OF FLOPS:      9.693e+09
        SOLVER ELAPSED TIME:  332ms

               CONVERGENCE CHECKS FOR EQUILIBRIUM ITERATION     2


 AVERAGE FORCE                      7.023E-02   TIME AVG. FORCE       3.664E-02
 LARGEST SCALED RESIDUAL FORCE      3.387E-13   AT NODE          8   DOF  3
   INSTANCE: PLATE-1                                                                         
  CORRESPONDING RESIDUAL FORCE      3.387E-13
 LARGEST INCREMENT OF DISP.         8.128E-05   AT NODE       6707   DOF  3
   INSTANCE: PLATE-1                                                                         
 LARGEST CORRECTION TO DISP.        3.401E-09   AT NODE       6707   DOF  3
   INSTANCE: PLATE-1                                                                         
          THE FORCE     EQUILIBRIUM EQUATIONS HAVE CONVERGED

 AVERAGE HEAT FLUX                  8.499E-06   TIME AVG. HEAT FLUX   4.425E-06
 LARGEST RESIDUAL HEAT FLUX        -2.247E-16   AT NODE       4957   DOF 11
   INSTANCE: PLATE-1                                                                         
 LARGEST INCREMENT OF TEMP.         1.385E-03   AT NODE          8   DOF 11
   INSTANCE: PLATE-1                                                                         
 LARGEST CORRECTION TO TEMP.        4.971E-08   AT NODE          8   DOF 11
   INSTANCE: PLATE-1                                                                         
          THE HEAT FLUX EQUILIBRIUM EQUATIONS HAVE CONVERGED

 ITERATION SUMMARY FOR THE INCREMENT:   2 TOTAL ITERATIONS, OF WHICH
   0 ARE SEVERE DISCONTINUITY ITERATIONS AND  2 ARE EQUILIBRIUM ITERATIONS.

 TIME INCREMENT COMPLETED  1.000E+04,  FRACTION OF STEP COMPLETED  2.200E-02
 STEP TIME COMPLETED       2.200E+05,  TOTAL TIME COMPLETED        2.200E+05


  INCREMENT    23 STARTS. ATTEMPT NUMBER  1, TIME INCREMENT  1.000E+04
 
	UNSYMMETRIC NEW DIRECT SPARSE SOLVER RUNNING ON
 	1 HOST x 1 MPI RANK PER HOST x 2 THREADS PER RANK
        NUMBER OF EQUATIONS:  65612
        NUMBER OF RHS:        1
        NUMBER OF FLOPS:      9.693e+09
        SOLVER ELAPSED TIME:  289ms

               CONVERGENCE CHECKS FOR EQUILIBRIUM ITERATION     1


 AVERAGE FORCE                      7.342E-02   TIME AVG. FORCE       3.824E-02
 LARGEST SCALED RESIDUAL FORCE      1.570E-10   AT NODE       6707   DOF  3
   INSTANCE: PLATE-1                                                                         
  CORRESPONDING RESIDUAL FORCE      1.570E-10
 LARGEST INCREMENT OF DISP.         8.532E-05   AT NODE       6707   DOF  3
   INSTANCE: PLATE-1                                                                         
 LARGEST CORRECTION TO DISP.        4.034E-06   AT NODE       6707   DOF  3
   INSTANCE: PLATE-1                                                                         
          THE FORCE     EQUILIBRIUM RESPONSE WAS LINEAR IN THIS INCREMENT

 AVERAGE HEAT FLUX                  8.913E-06   TIME AVG. HEAT FLUX   4.629E-06
 LARGEST RESIDUAL HEAT FLUX         2.163E-16   AT NODE       4303   DOF 11
   INSTANCE: PLATE-1                                                                         
 LARGEST INCREMENT OF TEMP.         1.399E-03   AT NODE          8   DOF 11
   INSTANCE: PLATE-1                                                                         
 LARGEST CORRECTION TO TEMP.        1.453E-05   AT NODE          8   DOF 11
   INSTANCE: PLATE-1                                                                         
          THE HEAT FLUX EQUILIBRIUM RESPONSE WAS LINEAR IN THIS INCREMENT

 ITERATION SUMMARY FOR THE INCREMENT:   1 TOTAL ITERATIONS, OF WHICH
   0 ARE SEVERE DISCONTINUITY ITERATIONS AND  1 ARE EQUILIBRIUM ITERATIONS.

 TIME INCREMENT COMPLETED  1.000E+04,  FRACTION OF STEP COMPLETED  2.300E-02
 STEP TIME COMPLETED       2.300E+05,  TOTAL TIME COMPLETED        2.300E+05


  INCREMENT    24 STARTS. ATTEMPT NUMBER  1, TIME INCREMENT  1.000E+04
 
	UNSYMMETRIC NEW DIRECT SPARSE SOLVER RUNNING ON
 	1 HOST x 1 MPI RANK PER HOST x 2 THREADS PER RANK
        NUMBER OF EQUATIONS:  65612
        NUMBER OF RHS:        1
        NUMBER OF FLOPS:      9.693e+09
        SOLVER ELAPSED TIME:  21ms

               CONVERGENCE CHECKS FOR EQUILIBRIUM ITERATION     1


 AVERAGE FORCE                      7.661E-02   TIME AVG. FORCE       3.984E-02
 LARGEST SCALED RESIDUAL FORCE      5.055E-10   AT NODE      11094   DOF  2
   INSTANCE: PLATE-1                                                                         
  CORRESPONDING RESIDUAL FORCE      5.055E-10
 LARGEST INCREMENT OF DISP.         8.936E-05   AT NODE       6707   DOF  3
   INSTANCE: PLATE-1                                                                         
 LARGEST CORRECTION TO DISP.        4.044E-06   AT NODE       6707   DOF  3
   INSTANCE: PLATE-1                                                                         
 ESTIMATE OF DISP.    CORRECTION    5.198E-10
 FORCE     EQUILIB. ACCEPTED BASED ON SMALL RESIDUAL AND ESTIMATED CORRECTION

 AVERAGE HEAT FLUX                  9.326E-06   TIME AVG. HEAT FLUX   4.834E-06
 LARGEST RESIDUAL HEAT FLUX         1.296E-07   AT NODE          8   DOF 11
   INSTANCE: PLATE-1                                                                         
 LARGEST INCREMENT OF TEMP.         1.414E-03   AT NODE          8   DOF 11
   INSTANCE: PLATE-1                                                                         
 LARGEST CORRECTION TO TEMP.        1.460E-05   AT NODE          8   DOF 11
   INSTANCE: PLATE-1                                                                         
          HEAT FLUX EQUILIBRIUM NOT ACHIEVED WITHIN TOLERANCE.
 
	UNSYMMETRIC NEW DIRECT SPARSE SOLVER RUNNING ON
 	1 HOST x 1 MPI RANK PER HOST x 2 THREADS PER RANK
        NUMBER OF EQUATIONS:  65612
        NUMBER OF RHS:        1
        NUMBER OF FLOPS:      9.693e+09
        SOLVER ELAPSED TIME:  357ms

               CONVERGENCE CHECKS FOR EQUILIBRIUM ITERATION     2


 AVERAGE FORCE                      7.661E-02   TIME AVG. FORCE       3.984E-02
 LARGEST SCALED RESIDUAL FORCE      4.090E-13   AT NODE          8   DOF  3
   INSTANCE: PLATE-1                                                                         
  CORRESPONDING RESIDUAL FORCE      4.090E-13
 LARGEST INCREMENT OF DISP.         8.936E-05   AT NODE       6707   DOF  3
   INSTANCE: PLATE-1                                                                         
 LARGEST CORRECTION TO DISP.        3.696E-09   AT NODE       6707   DOF  3
   INSTANCE: PLATE-1                                                                         
          THE FORCE     EQUILIBRIUM EQUATIONS HAVE CONVERGED

 AVERAGE HEAT FLUX                  9.327E-06   TIME AVG. HEAT FLUX   4.834E-06
 LARGEST RESIDUAL HEAT FLUX         2.523E-16   AT NODE       5025   DOF 11
   INSTANCE: PLATE-1                                                                         
 LARGEST INCREMENT OF TEMP.         1.414E-03   AT NODE          8   DOF 11
   INSTANCE: PLATE-1                                                                         
 LARGEST CORRECTION TO TEMP.        5.052E-08   AT NODE          8   DOF 11
   INSTANCE: PLATE-1                                                                         
          THE HEAT FLUX EQUILIBRIUM EQUATIONS HAVE CONVERGED

 ITERATION SUMMARY FOR THE INCREMENT:   2 TOTAL ITERATIONS, OF WHICH
   0 ARE SEVERE DISCONTINUITY ITERATIONS AND  2 ARE EQUILIBRIUM ITERATIONS.

 TIME INCREMENT COMPLETED  1.000E+04,  FRACTION OF STEP COMPLETED  2.400E-02
 STEP TIME COMPLETED       2.400E+05,  TOTAL TIME COMPLETED        2.400E+05


  INCREMENT    25 STARTS. ATTEMPT NUMBER  1, TIME INCREMENT  1.000E+04
 
	UNSYMMETRIC NEW DIRECT SPARSE SOLVER RUNNING ON
 	1 HOST x 1 MPI RANK PER HOST x 2 THREADS PER RANK
        NUMBER OF EQUATIONS:  65612
        NUMBER OF RHS:        1
        NUMBER OF FLOPS:      9.693e+09
        SOLVER ELAPSED TIME:  355ms

               CONVERGENCE CHECKS FOR EQUILIBRIUM ITERATION     1


 AVERAGE FORCE                      7.980E-02   TIME AVG. FORCE       4.143E-02
 LARGEST SCALED RESIDUAL FORCE      1.869E-10   AT NODE       6707   DOF  3
   INSTANCE: PLATE-1                                                                         
  CORRESPONDING RESIDUAL FORCE      1.869E-10
 LARGEST INCREMENT OF DISP.         9.341E-05   AT NODE       6707   DOF  3
   INSTANCE: PLATE-1                                                                         
 LARGEST CORRECTION TO DISP.        4.048E-06   AT NODE       6707   DOF  3
   INSTANCE: PLATE-1                                                                         
          THE FORCE     EQUILIBRIUM RESPONSE WAS LINEAR IN THIS INCREMENT

 AVERAGE HEAT FLUX                  9.740E-06   TIME AVG. HEAT FLUX   5.038E-06
 LARGEST RESIDUAL HEAT FLUX        -2.125E-16   AT NODE        200   DOF 11
   INSTANCE: PLATE-1                                                                         
 LARGEST INCREMENT OF TEMP.         1.429E-03   AT NODE          8   DOF 11
   INSTANCE: PLATE-1                                                                         
 LARGEST CORRECTION TO TEMP.        1.478E-05   AT NODE          8   DOF 11
   INSTANCE: PLATE-1                                                                         
          THE HEAT FLUX EQUILIBRIUM RESPONSE WAS LINEAR IN THIS INCREMENT

 ITERATION SUMMARY FOR THE INCREMENT:   1 TOTAL ITERATIONS, OF WHICH
   0 ARE SEVERE DISCONTINUITY ITERATIONS AND  1 ARE EQUILIBRIUM ITERATIONS.

 TIME INCREMENT COMPLETED  1.000E+04,  FRACTION OF STEP COMPLETED  2.500E-02
 STEP TIME COMPLETED       2.500E+05,  TOTAL TIME COMPLETED        2.500E+05


  INCREMENT    26 STARTS. ATTEMPT NUMBER  1, TIME INCREMENT  1.000E+04
 
	UNSYMMETRIC NEW DIRECT SPARSE SOLVER RUNNING ON
 	1 HOST x 1 MPI RANK PER HOST x 2 THREADS PER RANK
        NUMBER OF EQUATIONS:  65612
        NUMBER OF RHS:        1
        NUMBER OF FLOPS:      9.693e+09
        SOLVER ELAPSED TIME:  21ms

               CONVERGENCE CHECKS FOR EQUILIBRIUM ITERATION     1


 AVERAGE FORCE                      8.298E-02   TIME AVG. FORCE       4.303E-02
 LARGEST SCALED RESIDUAL FORCE      6.036E-10   AT NODE      11094   DOF  2
   INSTANCE: PLATE-1                                                                         
  CORRESPONDING RESIDUAL FORCE      6.036E-10
 LARGEST INCREMENT OF DISP.         9.747E-05   AT NODE       6707   DOF  3
   INSTANCE: PLATE-1                                                                         
 LARGEST CORRECTION TO DISP.        4.059E-06   AT NODE       6707   DOF  3
   INSTANCE: PLATE-1                                                                         
 ESTIMATE OF DISP.    CORRECTION    5.702E-10
 FORCE     EQUILIB. ACCEPTED BASED ON SMALL RESIDUAL AND ESTIMATED CORRECTION

 AVERAGE HEAT FLUX                  1.016E-05   TIME AVG. HEAT FLUX   5.243E-06
 LARGEST RESIDUAL HEAT FLUX         1.313E-07   AT NODE          8   DOF 11
   INSTANCE: PLATE-1                                                                         
 LARGEST INCREMENT OF TEMP.         1.444E-03   AT NODE          8   DOF 11
   INSTANCE: PLATE-1                                                                         
 LARGEST CORRECTION TO TEMP.        1.486E-05   AT NODE          8   DOF 11
   INSTANCE: PLATE-1                                                                         
          HEAT FLUX EQUILIBRIUM NOT ACHIEVED WITHIN TOLERANCE.
 
	UNSYMMETRIC NEW DIRECT SPARSE SOLVER RUNNING ON
 	1 HOST x 1 MPI RANK PER HOST x 2 THREADS PER RANK
        NUMBER OF EQUATIONS:  65612
        NUMBER OF RHS:        1
        NUMBER OF FLOPS:      9.693e+09
        SOLVER ELAPSED TIME:  302ms

               CONVERGENCE CHECKS FOR EQUILIBRIUM ITERATION     2


 AVERAGE FORCE                      8.298E-02   TIME AVG. FORCE       4.303E-02
 LARGEST SCALED RESIDUAL FORCE      4.862E-13   AT NODE          8   DOF  3
   INSTANCE: PLATE-1                                                                         
  CORRESPONDING RESIDUAL FORCE      4.862E-13
 LARGEST INCREMENT OF DISP.         9.748E-05   AT NODE       6707   DOF  3
   INSTANCE: PLATE-1                                                                         
 LARGEST CORRECTION TO DISP.        4.019E-09   AT NODE       6707   DOF  3
   INSTANCE: PLATE-1                                                                         
          THE FORCE     EQUILIBRIUM EQUATIONS HAVE CONVERGED

 AVERAGE HEAT FLUX                  1.016E-05   TIME AVG. HEAT FLUX   5.243E-06
[...]
 LARGEST CORRECTION TO DISP.       -4.574E-03   AT NODE        550   DOF  3
   INSTANCE: PLATE-1                                                                         
          THE FORCE     EQUILIBRIUM EQUATIONS HAVE CONVERGED

 AVERAGE HEAT FLUX                  3.332E-04   TIME AVG. HEAT FLUX   1.456E-04
 LARGEST RESIDUAL HEAT FLUX        -2.552E-16   AT NODE      13992   DOF 11
   INSTANCE: PLATE-1                                                                         
 LARGEST INCREMENT OF TEMP.        -1.462E-02   AT NODE        550   DOF 11
   INSTANCE: PLATE-1                                                                         
 LARGEST CORRECTION TO TEMP.       -4.594E-15   AT NODE       6437   DOF 11
   INSTANCE: PLATE-1                                                                         
          THE HEAT FLUX EQUILIBRIUM EQUATIONS HAVE CONVERGED

 ITERATION SUMMARY FOR THE INCREMENT:   2 TOTAL ITERATIONS, OF WHICH
   0 ARE SEVERE DISCONTINUITY ITERATIONS AND  2 ARE EQUILIBRIUM ITERATIONS.

 TIME INCREMENT COMPLETED  1.000E+04,  FRACTION OF STEP COMPLETED  0.930    
 STEP TIME COMPLETED       9.300E+06,  TOTAL TIME COMPLETED        9.300E+06


  INCREMENT   931 STARTS. ATTEMPT NUMBER  1, TIME INCREMENT  1.000E+04
 
	UNSYMMETRIC NEW DIRECT SPARSE SOLVER RUNNING ON
 	1 HOST x 1 MPI RANK PER HOST x 2 THREADS PER RANK
        NUMBER OF EQUATIONS:  65612
        NUMBER OF RHS:        1
        NUMBER OF FLOPS:      9.693e+09
        SOLVER ELAPSED TIME:  172ms
 

 ***WARNING: THE SYSTEM MATRIX HAS 2 NEGATIVE EIGENVALUES.

     NEGATIVE EIGENVALUES MEAN THAT THE SYSTEM MATRIX IS NOT 
     POSITIVE DEFINITE:
     FOR EXAMPLE, A BIFURCATION (BUCKLING) LOAD MAY HAVE BEEN EXCEEDED.

               CONVERGENCE CHECKS FOR EQUILIBRIUM ITERATION     1


 AVERAGE FORCE                      1.642E-03   TIME AVG. FORCE       0.290    
 LARGEST SCALED RESIDUAL FORCE      3.413E-02   AT NODE        550   DOF  3
   INSTANCE: PLATE-1                                                                         
  CORRESPONDING RESIDUAL FORCE      3.413E-02
 LARGEST INCREMENT OF DISP.        -2.197E-02   AT NODE        550   DOF  3
   INSTANCE: PLATE-1                                                                         
 LARGEST CORRECTION TO DISP.       -1.034E-02   AT NODE        550   DOF  3
   INSTANCE: PLATE-1                                                                         
          FORCE     EQUILIBRIUM NOT ACHIEVED WITHIN TOLERANCE.

 AVERAGE HEAT FLUX                  3.705E-04   TIME AVG. HEAT FLUX   1.458E-04
 LARGEST RESIDUAL HEAT FLUX        -3.799E-16   AT NODE        176   DOF 11
   INSTANCE: PLATE-1                                                                         
 LARGEST INCREMENT OF TEMP.        -2.945E-02   AT NODE        550   DOF 11
   INSTANCE: PLATE-1                                                                         
 LARGEST CORRECTION TO TEMP.       -1.483E-02   AT NODE        550   DOF 11
   INSTANCE: PLATE-1                                                                         
          THE HEAT FLUX EQUILIBRIUM RESPONSE WAS LINEAR IN THIS INCREMENT
 
	UNSYMMETRIC NEW DIRECT SPARSE SOLVER RUNNING ON
 	1 HOST x 1 MPI RANK PER HOST x 2 THREADS PER RANK
        NUMBER OF EQUATIONS:  65612
        NUMBER OF RHS:        1
        NUMBER OF FLOPS:      9.693e+09
        SOLVER ELAPSED TIME:  189ms
 

 ***WARNING: THE SYSTEM MATRIX HAS 4 NEGATIVE EIGENVALUES.
             EXPLANATIONS ARE SUGGESTED AFTER THE FIRST OCCURRENCE OF THIS MESSAGE.

               CONVERGENCE CHECKS FOR EQUILIBRIUM ITERATION     2


 AVERAGE FORCE                      1.642E-03   TIME AVG. FORCE       0.290    
 LARGEST SCALED RESIDUAL FORCE      8.673E-15   AT NODE      11279   DOF  3
   INSTANCE: PLATE-1                                                                         
  CORRESPONDING RESIDUAL FORCE      8.673E-15
 LARGEST INCREMENT OF DISP.         2.480E-02   AT NODE       6993   DOF  3
   INSTANCE: PLATE-1                                                                         
 LARGEST CORRECTION TO DISP.        3.053E-02   AT NODE       6992   DOF  3
   INSTANCE: PLATE-1                                                                         
          THE FORCE     EQUILIBRIUM EQUATIONS HAVE CONVERGED

 AVERAGE HEAT FLUX                  3.705E-04   TIME AVG. HEAT FLUX   1.458E-04
 LARGEST RESIDUAL HEAT FLUX         2.871E-16   AT NODE       3915   DOF 11
   INSTANCE: PLATE-1                                                                         
 LARGEST INCREMENT OF TEMP.        -2.945E-02   AT NODE        550   DOF 11
   INSTANCE: PLATE-1                                                                         
 LARGEST CORRECTION TO TEMP.       -4.258E-15   AT NODE       6437   DOF 11
   INSTANCE: PLATE-1                                                                         
          THE HEAT FLUX EQUILIBRIUM EQUATIONS HAVE CONVERGED

 ITERATION SUMMARY FOR THE INCREMENT:   2 TOTAL ITERATIONS, OF WHICH
   0 ARE SEVERE DISCONTINUITY ITERATIONS AND  2 ARE EQUILIBRIUM ITERATIONS.

 TIME INCREMENT COMPLETED  1.000E+04,  FRACTION OF STEP COMPLETED  0.931    
 STEP TIME COMPLETED       9.310E+06,  TOTAL TIME COMPLETED        9.310E+06


  INCREMENT   932 STARTS. ATTEMPT NUMBER  1, TIME INCREMENT  1.000E+04
 
	UNSYMMETRIC NEW DIRECT SPARSE SOLVER RUNNING ON
 	1 HOST x 1 MPI RANK PER HOST x 2 THREADS PER RANK
        NUMBER OF EQUATIONS:  65612
        NUMBER OF RHS:        1
        NUMBER OF FLOPS:      9.693e+09
        SOLVER ELAPSED TIME:  182ms
 

 ***WARNING: THE SYSTEM MATRIX HAS 7 NEGATIVE EIGENVALUES.
             EXPLANATIONS ARE SUGGESTED AFTER THE FIRST OCCURRENCE OF THIS MESSAGE.

               CONVERGENCE CHECKS FOR EQUILIBRIUM ITERATION     1


 AVERAGE FORCE                      1.572E-03   TIME AVG. FORCE       0.289    
 LARGEST SCALED RESIDUAL FORCE     -0.149       AT NODE        550   DOF  3
   INSTANCE: PLATE-1                                                                         
  CORRESPONDING RESIDUAL FORCE     -0.149    
 LARGEST INCREMENT OF DISP.         5.488E-02   AT NODE       6994   DOF  3
   INSTANCE: PLATE-1                                                                         
 LARGEST CORRECTION TO DISP.       -4.655E-02   AT NODE       6992   DOF  3
   INSTANCE: PLATE-1                                                                         
          FORCE     EQUILIBRIUM NOT ACHIEVED WITHIN TOLERANCE.

 AVERAGE HEAT FLUX                  4.047E-04   TIME AVG. HEAT FLUX   1.461E-04
 LARGEST RESIDUAL HEAT FLUX         2.102E-15   AT NODE        414   DOF 11
   INSTANCE: PLATE-1                                                                         
 LARGEST INCREMENT OF TEMP.        -3.945E-02   AT NODE       6436   DOF 11
   INSTANCE: PLATE-1                                                                         
 LARGEST CORRECTION TO TEMP.        3.258E-02   AT NODE        414   DOF 11
   INSTANCE: PLATE-1                                                                         
          THE HEAT FLUX EQUILIBRIUM RESPONSE WAS LINEAR IN THIS INCREMENT
 
	UNSYMMETRIC NEW DIRECT SPARSE SOLVER RUNNING ON
 	1 HOST x 1 MPI RANK PER HOST x 2 THREADS PER RANK
        NUMBER OF EQUATIONS:  65612
        NUMBER OF RHS:        1
        NUMBER OF FLOPS:      9.693e+09
        SOLVER ELAPSED TIME:  202ms
 

 ***WARNING: THE SYSTEM MATRIX HAS 4 NEGATIVE EIGENVALUES.
             EXPLANATIONS ARE SUGGESTED AFTER THE FIRST OCCURRENCE OF THIS MESSAGE.

               CONVERGENCE CHECKS FOR EQUILIBRIUM ITERATION     2


 AVERAGE FORCE                      1.568E-03   TIME AVG. FORCE       0.289    
 LARGEST SCALED RESIDUAL FORCE      1.932E-03   AT NODE       6434   DOF  3
   INSTANCE: PLATE-1                                                                         
  CORRESPONDING RESIDUAL FORCE      1.932E-03
 LARGEST INCREMENT OF DISP.        -0.207       AT NODE       6436   DOF  3
   INSTANCE: PLATE-1                                                                         
 LARGEST CORRECTION TO DISP.       -0.189       AT NODE       6994   DOF  3
   INSTANCE: PLATE-1                                                                         
          FORCE     EQUILIBRIUM NOT ACHIEVED WITHIN TOLERANCE.

 AVERAGE HEAT FLUX                  4.047E-04   TIME AVG. HEAT FLUX   1.461E-04
 LARGEST RESIDUAL HEAT FLUX        -2.988E-16   AT NODE       3913   DOF 11
   INSTANCE: PLATE-1                                                                         
 LARGEST INCREMENT OF TEMP.        -3.945E-02   AT NODE       6436   DOF 11
   INSTANCE: PLATE-1                                                                         
 LARGEST CORRECTION TO TEMP.        1.761E-15   AT NODE       6706   DOF 11
   INSTANCE: PLATE-1                                                                         
          THE HEAT FLUX EQUILIBRIUM EQUATIONS HAVE CONVERGED
 
	UNSYMMETRIC NEW DIRECT SPARSE SOLVER RUNNING ON
 	1 HOST x 1 MPI RANK PER HOST x 2 THREADS PER RANK
        NUMBER OF EQUATIONS:  65612
        NUMBER OF RHS:        1
        NUMBER OF FLOPS:      9.693e+09
        SOLVER ELAPSED TIME:  170ms
 

 ***WARNING: THE SYSTEM MATRIX HAS 4 NEGATIVE EIGENVALUES.
             EXPLANATIONS ARE SUGGESTED AFTER THE FIRST OCCURRENCE OF THIS MESSAGE.

               CONVERGENCE CHECKS FOR EQUILIBRIUM ITERATION     3


 AVERAGE FORCE                      1.568E-03   TIME AVG. FORCE       0.289    
 LARGEST SCALED RESIDUAL FORCE      7.049E-04   AT NODE       6434   DOF  3
   INSTANCE: PLATE-1                                                                         
  CORRESPONDING RESIDUAL FORCE      7.049E-04
 LARGEST INCREMENT OF DISP.        -0.207       AT NODE       6436   DOF  3
   INSTANCE: PLATE-1                                                                         
 LARGEST CORRECTION TO DISP.        3.506E-03   AT NODE      11984   DOF  3
   INSTANCE: PLATE-1                                                                         
 ESTIMATE OF DISP.    CORRECTION    1.279E-03
 FORCE     EQUILIB. ACCEPTED BASED ON SMALL RESIDUAL AND ESTIMATED CORRECTION

 AVERAGE HEAT FLUX                  4.047E-04   TIME AVG. HEAT FLUX   1.461E-04
 LARGEST RESIDUAL HEAT FLUX        -3.165E-16   AT NODE       4484   DOF 11
   INSTANCE: PLATE-1                                                                         
 LARGEST INCREMENT OF TEMP.        -3.945E-02   AT NODE       6436   DOF 11
   INSTANCE: PLATE-1                                                                         
 LARGEST CORRECTION TO TEMP.       -2.886E-15   AT NODE       6437   DOF 11
   INSTANCE: PLATE-1                                                                         
          THE HEAT FLUX EQUILIBRIUM EQUATIONS HAVE CONVERGED

 ITERATION SUMMARY FOR THE INCREMENT:   3 TOTAL ITERATIONS, OF WHICH
   0 ARE SEVERE DISCONTINUITY ITERATIONS AND  3 ARE EQUILIBRIUM ITERATIONS.

 TIME INCREMENT COMPLETED  1.000E+04,  FRACTION OF STEP COMPLETED  0.932    
 STEP TIME COMPLETED       9.320E+06,  TOTAL TIME COMPLETED        9.320E+06


  INCREMENT   933 STARTS. ATTEMPT NUMBER  1, TIME INCREMENT  1.000E+04
 
	UNSYMMETRIC NEW DIRECT SPARSE SOLVER RUNNING ON
 	1 HOST x 1 MPI RANK PER HOST x 2 THREADS PER RANK
        NUMBER OF EQUATIONS:  65612
        NUMBER OF RHS:        1
        NUMBER OF FLOPS:      9.693e+09
        SOLVER ELAPSED TIME:  188ms
 

 ***WARNING: THE SYSTEM MATRIX HAS 9 NEGATIVE EIGENVALUES.
             EXPLANATIONS ARE SUGGESTED AFTER THE FIRST OCCURRENCE OF THIS MESSAGE.

               CONVERGENCE CHECKS FOR EQUILIBRIUM ITERATION     1


 AVERAGE FORCE                      3.378E-03   TIME AVG. FORCE       0.289    
 LARGEST SCALED RESIDUAL FORCE       22.8       AT NODE        492   DOF  3
   INSTANCE: PLATE-1                                                                         
  CORRESPONDING RESIDUAL FORCE       22.8    
 LARGEST INCREMENT OF DISP.         0.286       AT NODE       6436   DOF  3
   INSTANCE: PLATE-1                                                                         
 LARGEST CORRECTION TO DISP.        0.493       AT NODE       6436   DOF  3
   INSTANCE: PLATE-1                                                                         
          FORCE     EQUILIBRIUM NOT ACHIEVED WITHIN TOLERANCE.

 AVERAGE HEAT FLUX                  1.515E-03   TIME AVG. HEAT FLUX   1.476E-04
 LARGEST RESIDUAL HEAT FLUX         2.442E-15   AT NODE       6706   DOF 11
   INSTANCE: PLATE-1                                                                         
 LARGEST INCREMENT OF TEMP.        -0.871       AT NODE        550   DOF 11
   INSTANCE: PLATE-1                                                                         
 LARGEST CORRECTION TO TEMP.       -0.833       AT NODE        550   DOF 11
   INSTANCE: PLATE-1                                                                         
          THE HEAT FLUX EQUILIBRIUM RESPONSE WAS LINEAR IN THIS INCREMENT
 
	UNSYMMETRIC NEW DIRECT SPARSE SOLVER RUNNING ON
 	1 HOST x 1 MPI RANK PER HOST x 2 THREADS PER RANK
        NUMBER OF EQUATIONS:  65612
        NUMBER OF RHS:        1
        NUMBER OF FLOPS:      9.693e+09
        SOLVER ELAPSED TIME:  164ms
 

 ***WARNING: THE SYSTEM MATRIX HAS 176 NEGATIVE EIGENVALUES.
             EXPLANATIONS ARE SUGGESTED AFTER THE FIRST OCCURRENCE OF THIS MESSAGE.

               CONVERGENCE CHECKS FOR EQUILIBRIUM ITERATION     2


 AVERAGE FORCE                      6.926E-03   TIME AVG. FORCE       0.289    
 LARGEST SCALED RESIDUAL FORCE      -1.48       AT NODE       6870   DOF  3
   INSTANCE: PLATE-1                                                                         
  CORRESPONDING RESIDUAL FORCE      -1.48    
 LARGEST INCREMENT OF DISP.          39.2       AT NODE       6445   DOF  3
   INSTANCE: PLATE-1                                                                         
 LARGEST CORRECTION TO DISP.         39.1       AT NODE       6445   DOF  3
   INSTANCE: PLATE-1                                                                         
          FORCE     EQUILIBRIUM NOT ACHIEVED WITHIN TOLERANCE.

 AVERAGE HEAT FLUX                  1.515E-03   TIME AVG. HEAT FLUX   1.476E-04
 LARGEST RESIDUAL HEAT FLUX         1.915E-15   AT NODE       6437   DOF 11
   INSTANCE: PLATE-1                                                                         
 LARGEST INCREMENT OF TEMP.        -0.871       AT NODE        550   DOF 11
   INSTANCE: PLATE-1                                                                         
 LARGEST CORRECTION TO TEMP.       -5.734E-15   AT NODE       7271   DOF 11
   INSTANCE: PLATE-1                                                                         
          THE HEAT FLUX EQUILIBRIUM EQUATIONS HAVE CONVERGED
 
	UNSYMMETRIC NEW DIRECT SPARSE SOLVER RUNNING ON
 	1 HOST x 1 MPI RANK PER HOST x 2 THREADS PER RANK
        NUMBER OF EQUATIONS:  65612
        NUMBER OF RHS:        1
        NUMBER OF FLOPS:      9.693e+09
        SOLVER ELAPSED TIME:  172ms
 

 ***WARNING: THE SYSTEM MATRIX HAS 176 NEGATIVE EIGENVALUES.
             EXPLANATIONS ARE SUGGESTED AFTER THE FIRST OCCURRENCE OF THIS MESSAGE.

               CONVERGENCE CHECKS FOR EQUILIBRIUM ITERATION     3


 AVERAGE FORCE                      2.056E-02   TIME AVG. FORCE       0.289    
 LARGEST SCALED RESIDUAL FORCE      -8.82       AT NODE       6870   DOF  3
   INSTANCE: PLATE-1                                                                         
  CORRESPONDING RESIDUAL FORCE      -8.82    
 LARGEST INCREMENT OF DISP.          145.       AT NODE       6445   DOF  3
   INSTANCE: PLATE-1                                                                         
 LARGEST CORRECTION TO DISP.         106.       AT NODE       6445   DOF  3
   INSTANCE: PLATE-1                                                                         
          FORCE     EQUILIBRIUM NOT ACHIEVED WITHIN TOLERANCE.

 AVERAGE HEAT FLUX                  1.515E-03   TIME AVG. HEAT FLUX   1.476E-04
 LARGEST RESIDUAL HEAT FLUX         2.942E-15   AT NODE       6435   DOF 11
   INSTANCE: PLATE-1                                                                         
 LARGEST INCREMENT OF TEMP.        -0.871       AT NODE        550   DOF 11
   INSTANCE: PLATE-1                                                                         
 LARGEST CORRECTION TO TEMP.       -5.514E-15   AT NODE       6437   DOF 11
   INSTANCE: PLATE-1                                                                         
          THE HEAT FLUX EQUILIBRIUM EQUATIONS HAVE CONVERGED
 
	UNSYMMETRIC NEW DIRECT SPARSE SOLVER RUNNING ON
 	1 HOST x 1 MPI RANK PER HOST x 2 THREADS PER RANK
        NUMBER OF EQUATIONS:  65612
        NUMBER OF RHS:        1
        NUMBER OF FLOPS:      9.693e+09
        SOLVER ELAPSED TIME:  164ms
 

 ***WARNING: THE SYSTEM MATRIX HAS 176 NEGATIVE EIGENVALUES.
             EXPLANATIONS ARE SUGGESTED AFTER THE FIRST OCCURRENCE OF THIS MESSAGE.

               CONVERGENCE CHECKS FOR EQUILIBRIUM ITERATION     4


 AVERAGE FORCE                      4.108E-02   TIME AVG. FORCE       0.289    
 LARGEST SCALED RESIDUAL FORCE      -19.2       AT NODE       6870   DOF  3
   INSTANCE: PLATE-1                                                                         
  CORRESPONDING RESIDUAL FORCE      -19.2    
 LARGEST INCREMENT OF DISP.          285.       AT NODE       6445   DOF  3
   INSTANCE: PLATE-1                                                                         
 LARGEST CORRECTION TO DISP.         140.       AT NODE       6445   DOF  3
   INSTANCE: PLATE-1                                                                         
          FORCE     EQUILIBRIUM NOT ACHIEVED WITHIN TOLERANCE.

 AVERAGE HEAT FLUX                  1.515E-03   TIME AVG. HEAT FLUX   1.476E-04
 LARGEST RESIDUAL HEAT FLUX        -2.220E-15   AT NODE       6435   DOF 11
   INSTANCE: PLATE-1                                                                         
 LARGEST INCREMENT OF TEMP.        -0.871       AT NODE        550   DOF 11
   INSTANCE: PLATE-1                                                                         
 LARGEST CORRECTION TO TEMP.        4.318E-14   AT NODE       6437   DOF 11
   INSTANCE: PLATE-1                                                                         
          THE HEAT FLUX EQUILIBRIUM EQUATIONS HAVE CONVERGED
 

 ***NOTE: THE SOLUTION APPEARS TO BE DIVERGING. CONVERGENCE IS JUDGED UNLIKELY.
 

 ***ERROR: FIXED TIME INCREMENT IS TOO LARGE

 ***ERROR: THE ANALYSIS HAS BEEN TERMINATED DUE TO PREVIOUS ERRORS. ALL OUTPUT 
           REQUESTS HAVE BEEN WRITTEN FOR THE LAST CONVERGED INCREMENT.



     ANALYSIS SUMMARY:
     TOTAL OF        933  INCREMENTS
                       1  CUTBACKS IN AUTOMATIC INCREMENTATION
                    1099  ITERATIONS INCLUDING CONTACT ITERATIONS IF PRESENT
                    1099  PASSES THROUGH THE EQUATION SOLVER OF WHICH 
                    1060  INVOLVE MATRIX DECOMPOSITION, INCLUDING
                       0  DECOMPOSITION(S) OF THE MASS MATRIX
                       1  REORDERING OF EQUATIONS TO MINIMIZE WAVEFRONT
                       0  ADDITIONAL RESIDUAL EVALUATIONS FOR LINE SEARCHES
                       0  ADDITIONAL OPERATOR EVALUATIONS FOR LINE SEARCHES
                       5  WARNING MESSAGES DURING USER INPUT PROCESSING
                      10  WARNING MESSAGES DURING ANALYSIS
                       0  ANALYSIS WARNINGS ARE NUMERICAL PROBLEM MESSAGES
                       9  ANALYSIS WARNINGS ARE NEGATIVE EIGENVALUE MESSAGES
                       2  ERROR MESSAGES



     JOB TIME SUMMARY
       USER TIME (SEC)      =     6.81E+02
       SYSTEM TIME (SEC)    =      62.    
       TOTAL CPU TIME (SEC) =     7.43E+02
       WALLCLOCK TIME (SEC) =          642
       MEMORY PEAK (GB)     =            0
