1

   Abaqus 2023.HF4                                  Date 12-Sep-2024   Time 20:44:33
   For use by AALTO UNIVERSITY under license from Dassault Systemes or its subsidiary.

                                                                                 
                                                                                 
 STEP    1     INCREMENT     1     STEP TIME    0.00    


                        S T E P       1     C O U P L E D - T E M P E R A T U R E - D I S P L A C E M E N T   A N A L Y S I S


                                                                                          

          FIXED TIME INCREMENTS
          TIME INCREMENT IS                                    1.000E+04
          TIME PERIOD IS                                       1.000E+07

          CREEP AND SWELLING EFFECTS ARE OMITTED IN THIS STEP
          THE RATE DEPENDENCY WILL BE CONSIDERED IN THIS STEP

          CREEP AND SWELLING EFFECTS WILL BE IGNORED.

 CONVERGENCE TOLERANCE PARAMETERS FOR FORCE    
     CRITERION FOR RESIDUAL FORCE     FOR A NONLINEAR PROBLEM          5.000E-03
     CRITERION FOR DISP.    CORRECTION IN A NONLINEAR PROBLEM          1.000E-02
     INITIAL VALUE OF TIME AVERAGE FORCE                               1.000E-02
     AVERAGE FORCE     IS TIME AVERAGE FORCE    
     ALTERNATE CRIT. FOR RESIDUAL FORCE     FOR A NONLINEAR PROBLEM    2.000E-02
     CRITERION FOR ZERO FORCE     RELATIVE TO TIME AVRG. FORCE         1.000E-05
     CRITERION FOR RESIDUAL FORCE     WHEN THERE IS ZERO FLUX          1.000E-05
     CRITERION FOR DISP.    CORRECTION WHEN THERE IS ZERO FLUX         1.000E-03
     CRITERION FOR RESIDUAL FORCE     FOR A LINEAR INCREMENT           1.000E-08
     FIELD CONVERSION RATIO                                             1.00    
     CRITERION FOR ZERO FORCE     REL. TO TIME AVRG. MAX. FORCE        1.000E-05
     CRITERION FOR ZERO DISP.    RELATIVE TO CHARACTERISTIC LENGTH     1.000E-08

 CONVERGENCE TOLERANCE PARAMETERS FOR HEAT FLUX
     CRITERION FOR RESIDUAL HEAT FLUX FOR A NONLINEAR PROBLEM          5.000E-03
     CRITERION FOR TEMP.    CORRECTION IN A NONLINEAR PROBLEM          1.000E-02
     INITIAL VALUE OF TIME AVERAGE HEAT FLUX                           1.000E-02
     AVERAGE HEAT FLUX IS TIME AVERAGE HEAT FLUX
     ALTERNATE CRIT. FOR RESIDUAL HEAT FLUX FOR A NONLINEAR PROBLEM    2.000E-02
     CRITERION FOR ZERO HEAT FLUX RELATIVE TO TIME AVRG. HEAT FLUX     1.000E-05
     CRITERION FOR RESIDUAL HEAT FLUX WHEN THERE IS ZERO FLUX          1.000E-05
     CRITERION FOR TEMP.    CORRECTION WHEN THERE IS ZERO FLUX         1.000E-03
     CRITERION FOR RESIDUAL HEAT FLUX FOR A LINEAR INCREMENT           1.000E-08
     FIELD CONVERSION RATIO                                             1.00    
     CRITERION FOR ZERO HEAT FLUX REL. TO TIME AVRG. MAX. HEAT FLUX    1.000E-05

     VOLUMETRIC STRAIN COMPATIBILITY TOLERANCE FOR HYBRID SOLIDS       1.000E-05
     AXIAL STRAIN COMPATIBILITY TOLERANCE FOR HYBRID BEAMS             1.000E-05
     TRANS. SHEAR STRAIN COMPATIBILITY TOLERANCE FOR HYBRID BEAMS      1.000E-05
     SOFT CONTACT CONSTRAINT COMPATIBILITY TOLERANCE FOR P>P0          5.000E-03
     SOFT CONTACT CONSTRAINT COMPATIBILITY TOLERANCE FOR P=0.0         0.100    
     CONTACT FORCE ERROR TOLERANCE FOR CONVERT SDI=YES                 1.00    
     DISPLACEMENT COMPATIBILITY TOLERANCE FOR DCOUP ELEMENTS           1.000E-05
     ROTATION COMPATIBILITY TOLERANCE FOR DCOUP ELEMENTS               1.000E-05

 EQUILIBRIUM WILL BE CHECKED FOR SEVERE DISCONTINUITY ITERATIONS

 ITERATION CONTROL PARAMETERS:
     FIRST EQUILIBRIUM ITERATION FOR CONSECUTIVE DIVERGENCE CHECK              4
     EQUILIBRIUM ITERATION AFTER WHICH ALTERNATE RESIDUAL IS USED              9
     MAXIMUM EQUILIBRIUM ITERATIONS ALLOWED                                   16
     MAXIMUM ITERATIONS FOR SEVERE DISCONTINUITIES                            12
     GLOBAL STABILIZATION CONTROL IS NOT USED

          PRINT OF INCREMENT NUMBER, TIME, ETC., EVERY    1  INCREMENTS

     THE MAXIMUM NUMBER OF INCREMENTS IN THIS STEP IS                 1000000

          LARGE DISPLACEMENT THEORY WILL BE USED

          UNSYMMETRIC MATRIX STORAGE AND SOLUTION WILL BE USED

     LINEAR EXTRAPOLATION WILL BE USED

     CHARACTERISTIC ELEMENT LENGTH     8.915E-06

     DETAILS REGARDING ACTUAL SOLUTION WAVEFRONT REQUESTED

     DETAILED OUTPUT OF DIAGNOSTICS TO DATABASE REQUESTED

     PRINT OF INCREMENT NUMBER, TIME, ETC., TO THE MESSAGE FILE EVERY     1  INCREMENTS

     COLLECTING MODEL CONSTRAINT INFORMATION FOR OVERCONSTRAINT CHECKS

     COLLECTING STEP CONSTRAINT INFORMATION FOR OVERCONSTRAINT CHECKS


  INCREMENT     1 STARTS. ATTEMPT NUMBER  1, TIME INCREMENT  1.000E+04
 
	UNSYMMETRIC NEW DIRECT SPARSE SOLVER RUNNING ON
 	1 HOST x 1 MPI RANK PER HOST x 1 THREAD PER RANK
        NUMBER OF EQUATIONS:  131150
        NUMBER OF RHS:        1
        NUMBER OF FLOPS:      2.469e+11
        SOLVER ELAPSED TIME:  5.3s

               CONVERGENCE CHECKS FOR EQUILIBRIUM ITERATION     1


 AVERAGE FORCE                      4.223E-06   TIME AVG. FORCE       4.223E-06
 LARGEST SCALED RESIDUAL FORCE      6.339E-16   AT NODE      24176   DOF  2
   INSTANCE: PLATE-1                                                                         
  CORRESPONDING RESIDUAL FORCE      6.339E-16
 LARGEST INCREMENT OF DISP.         1.064E-08   AT NODE        960   DOF  2
   INSTANCE: PLATE-1                                                                         
 LARGEST CORRECTION TO DISP.        1.064E-08   AT NODE        960   DOF  2
   INSTANCE: PLATE-1                                                                         
          THE FORCE     EQUILIBRIUM RESPONSE WAS LINEAR IN THIS INCREMENT

 AVERAGE HEAT FLUX                  2.277E-15   TIME AVG. HEAT FLUX   1.000E-02
 LARGEST RESIDUAL HEAT FLUX        -2.165E-13   AT NODE       3601   DOF 11
   INSTANCE: PLATE-1                                                                         
 LARGEST INCREMENT OF TEMP.        -3.227E-14   AT NODE       2001   DOF 11
   INSTANCE: PLATE-1                                                                         
 LARGEST CORRECTION TO TEMP.       -3.227E-14   AT NODE       2001   DOF 11
   INSTANCE: PLATE-1                                                                         
          THERE IS ZERO HEAT FLUX EVERYWHERE
 

 ***WARNING: THERE IS ZERO HEAT FLUX EVERYWHERE IN THE MODEL BASED ON THE 
             DEFAULT CRITERION. PLEASE CHECK THE VALUE OF THE AVERAGE HEAT FLUX 
             DURING THE CURRENT ITERATION TO VERIFY THAT THE HEAT FLUX IS SMALL 
             ENOUGH TO BE TREATED AS ZERO. IF NOT, PLEASE USE THE SOLUTION 
             CONTROLS TO RESET THE CRITERION FOR ZERO HEAT FLUX.

 ITERATION SUMMARY FOR THE INCREMENT:   1 TOTAL ITERATIONS, OF WHICH
   0 ARE SEVERE DISCONTINUITY ITERATIONS AND  1 ARE EQUILIBRIUM ITERATIONS.

 TIME INCREMENT COMPLETED  1.000E+04,  FRACTION OF STEP COMPLETED  1.000E-03
 STEP TIME COMPLETED       1.000E+04,  TOTAL TIME COMPLETED        1.000E+04


  INCREMENT     2 STARTS. ATTEMPT NUMBER  1, TIME INCREMENT  1.000E+04
 
	UNSYMMETRIC NEW DIRECT SPARSE SOLVER RUNNING ON
 	1 HOST x 1 MPI RANK PER HOST x 1 THREAD PER RANK
        NUMBER OF EQUATIONS:  131150
        NUMBER OF RHS:        1
        NUMBER OF FLOPS:      2.469e+11
        SOLVER ELAPSED TIME:  5.4s

               CONVERGENCE CHECKS FOR EQUILIBRIUM ITERATION     1


 AVERAGE FORCE                      1.724E-05   TIME AVG. FORCE       1.073E-05
 LARGEST SCALED RESIDUAL FORCE      5.608E-17   AT NODE      22121   DOF  2
   INSTANCE: PLATE-1                                                                         
  CORRESPONDING RESIDUAL FORCE      5.608E-17
 LARGEST INCREMENT OF DISP.         1.064E-08   AT NODE        960   DOF  2
   INSTANCE: PLATE-1                                                                         
 LARGEST CORRECTION TO DISP.        3.109E-19   AT NODE        960   DOF  3
   INSTANCE: PLATE-1                                                                         
          THE FORCE     EQUILIBRIUM RESPONSE WAS LINEAR IN THIS INCREMENT

 AVERAGE HEAT FLUX                  3.743E-05   TIME AVG. HEAT FLUX   3.743E-05
 LARGEST RESIDUAL HEAT FLUX         3.477E-10   AT NODE        958   DOF 12
   INSTANCE: PLATE-1                                                                         
 LARGEST INCREMENT OF TEMP.         5.221E-02   AT NODE        958   DOF 11
   INSTANCE: PLATE-1                                                                         
 LARGEST CORRECTION TO TEMP.        5.221E-02   AT NODE        958   DOF 11
   INSTANCE: PLATE-1                                                                         
 ESTIMATE OF TEMP.    CORRECTION    4.103E-11
 HEAT FLUX EQUILIB. ACCEPTED BASED ON SMALL RESIDUAL AND ESTIMATED CORRECTION

 ITERATION SUMMARY FOR THE INCREMENT:   1 TOTAL ITERATIONS, OF WHICH
   0 ARE SEVERE DISCONTINUITY ITERATIONS AND  1 ARE EQUILIBRIUM ITERATIONS.

 TIME INCREMENT COMPLETED  1.000E+04,  FRACTION OF STEP COMPLETED  2.000E-03
 STEP TIME COMPLETED       2.000E+04,  TOTAL TIME COMPLETED        2.000E+04


  INCREMENT     3 STARTS. ATTEMPT NUMBER  1, TIME INCREMENT  1.000E+04
 
	UNSYMMETRIC NEW DIRECT SPARSE SOLVER RUNNING ON
 	1 HOST x 1 MPI RANK PER HOST x 1 THREAD PER RANK
        NUMBER OF EQUATIONS:  131150
        NUMBER OF RHS:        1
        NUMBER OF FLOPS:      2.469e+11
        SOLVER ELAPSED TIME:  5.4s

               CONVERGENCE CHECKS FOR EQUILIBRIUM ITERATION     1


 AVERAGE FORCE                      2.586E-05   TIME AVG. FORCE       1.578E-05
 LARGEST SCALED RESIDUAL FORCE      6.646E-17   AT NODE       1671   DOF  2
   INSTANCE: PLATE-1                                                                         
  CORRESPONDING RESIDUAL FORCE      6.646E-17
 LARGEST INCREMENT OF DISP.         1.064E-08   AT NODE        960   DOF  2
   INSTANCE: PLATE-1                                                                         
 LARGEST CORRECTION TO DISP.       -1.217E-14   AT NODE       3388   DOF  2
   INSTANCE: PLATE-1                                                                         
          THE FORCE     EQUILIBRIUM RESPONSE WAS LINEAR IN THIS INCREMENT

 AVERAGE HEAT FLUX                  2.250E-04   TIME AVG. HEAT FLUX   1.312E-04
 LARGEST RESIDUAL HEAT FLUX         1.402E-09   AT NODE        958   DOF 12
   INSTANCE: PLATE-1                                                                         
 LARGEST INCREMENT OF TEMP.         0.106       AT NODE        958   DOF 11
   INSTANCE: PLATE-1                                                                         
 LARGEST CORRECTION TO TEMP.        5.408E-02   AT NODE        958   DOF 11
   INSTANCE: PLATE-1                                                                         
 ESTIMATE OF TEMP.    CORRECTION    1.664E-10
 HEAT FLUX EQUILIB. ACCEPTED BASED ON SMALL RESIDUAL AND ESTIMATED CORRECTION

 ITERATION SUMMARY FOR THE INCREMENT:   1 TOTAL ITERATIONS, OF WHICH
   0 ARE SEVERE DISCONTINUITY ITERATIONS AND  1 ARE EQUILIBRIUM ITERATIONS.

 TIME INCREMENT COMPLETED  1.000E+04,  FRACTION OF STEP COMPLETED  3.000E-03
 STEP TIME COMPLETED       3.000E+04,  TOTAL TIME COMPLETED        3.000E+04


  INCREMENT     4 STARTS. ATTEMPT NUMBER  1, TIME INCREMENT  1.000E+04
 
	UNSYMMETRIC NEW DIRECT SPARSE SOLVER RUNNING ON
 	1 HOST x 1 MPI RANK PER HOST x 1 THREAD PER RANK
        NUMBER OF EQUATIONS:  131150
        NUMBER OF RHS:        1
        NUMBER OF FLOPS:      2.469e+11
        SOLVER ELAPSED TIME:  11s

               CONVERGENCE CHECKS FOR EQUILIBRIUM ITERATION     1


 AVERAGE FORCE                      3.448E-05   TIME AVG. FORCE       2.045E-05
 LARGEST SCALED RESIDUAL FORCE     -8.134E-17   AT NODE       1100   DOF  2
   INSTANCE: PLATE-1                                                                         
  CORRESPONDING RESIDUAL FORCE     -8.134E-17
 LARGEST INCREMENT OF DISP.         1.064E-08   AT NODE        960   DOF  2
   INSTANCE: PLATE-1                                                                         
 LARGEST CORRECTION TO DISP.       -4.066E-14   AT NODE       3388   DOF  2
   INSTANCE: PLATE-1                                                                         
          THE FORCE     EQUILIBRIUM RESPONSE WAS LINEAR IN THIS INCREMENT

 AVERAGE HEAT FLUX                  4.500E-04   TIME AVG. HEAT FLUX   2.375E-04
 LARGEST RESIDUAL HEAT FLUX         3.236E-09   AT NODE        958   DOF 12
   INSTANCE: PLATE-1                                                                         
 LARGEST INCREMENT OF TEMP.         0.164       AT NODE        958   DOF 11
   INSTANCE: PLATE-1                                                                         
 LARGEST CORRECTION TO TEMP.        5.796E-02   AT NODE        958   DOF 11
   INSTANCE: PLATE-1                                                                         
 ESTIMATE OF TEMP.    CORRECTION    3.855E-10
 HEAT FLUX EQUILIB. ACCEPTED BASED ON SMALL RESIDUAL AND ESTIMATED CORRECTION

 ITERATION SUMMARY FOR THE INCREMENT:   1 TOTAL ITERATIONS, OF WHICH
   0 ARE SEVERE DISCONTINUITY ITERATIONS AND  1 ARE EQUILIBRIUM ITERATIONS.

 TIME INCREMENT COMPLETED  1.000E+04,  FRACTION OF STEP COMPLETED  4.000E-03
 STEP TIME COMPLETED       4.000E+04,  TOTAL TIME COMPLETED        4.000E+04


  INCREMENT     5 STARTS. ATTEMPT NUMBER  1, TIME INCREMENT  1.000E+04
 
	UNSYMMETRIC NEW DIRECT SPARSE SOLVER RUNNING ON
 	1 HOST x 1 MPI RANK PER HOST x 1 THREAD PER RANK
        NUMBER OF EQUATIONS:  131150
        NUMBER OF RHS:        1
        NUMBER OF FLOPS:      2.469e+11
        SOLVER ELAPSED TIME:  11s

               CONVERGENCE CHECKS FOR EQUILIBRIUM ITERATION     1


 AVERAGE FORCE                      4.311E-05   TIME AVG. FORCE       2.498E-05
 LARGEST SCALED RESIDUAL FORCE      6.889E-17   AT NODE       1100   DOF  2
   INSTANCE: PLATE-1                                                                         
  CORRESPONDING RESIDUAL FORCE      6.889E-17
 LARGEST INCREMENT OF DISP.         1.064E-08   AT NODE        960   DOF  2
   INSTANCE: PLATE-1                                                                         
 LARGEST CORRECTION TO DISP.       -6.536E-14   AT NODE       3388   DOF  2
   INSTANCE: PLATE-1                                                                         
          THE FORCE     EQUILIBRIUM RESPONSE WAS LINEAR IN THIS INCREMENT

 AVERAGE HEAT FLUX                  7.506E-04   TIME AVG. HEAT FLUX   3.658E-04
 LARGEST RESIDUAL HEAT FLUX         5.991E-09   AT NODE        958   DOF 12
   INSTANCE: PLATE-1                                                                         
 LARGEST INCREMENT OF TEMP.         0.228       AT NODE        958   DOF 11
   INSTANCE: PLATE-1                                                                         
 LARGEST CORRECTION TO TEMP.        6.409E-02   AT NODE        958   DOF 11
   INSTANCE: PLATE-1                                                                         
 ESTIMATE OF TEMP.    CORRECTION    7.165E-10
 HEAT FLUX EQUILIB. ACCEPTED BASED ON SMALL RESIDUAL AND ESTIMATED CORRECTION

 ITERATION SUMMARY FOR THE INCREMENT:   1 TOTAL ITERATIONS, OF WHICH
   0 ARE SEVERE DISCONTINUITY ITERATIONS AND  1 ARE EQUILIBRIUM ITERATIONS.

 TIME INCREMENT COMPLETED  1.000E+04,  FRACTION OF STEP COMPLETED  5.000E-03
 STEP TIME COMPLETED       5.000E+04,  TOTAL TIME COMPLETED        5.000E+04


  INCREMENT     6 STARTS. ATTEMPT NUMBER  1, TIME INCREMENT  1.000E+04
 
	UNSYMMETRIC NEW DIRECT SPARSE SOLVER RUNNING ON
 	1 HOST x 1 MPI RANK PER HOST x 1 THREAD PER RANK
        NUMBER OF EQUATIONS:  131150
        NUMBER OF RHS:        1
        NUMBER OF FLOPS:      2.469e+11
        SOLVER ELAPSED TIME:  7.7s

               CONVERGENCE CHECKS FOR EQUILIBRIUM ITERATION     1


 AVERAGE FORCE                      5.173E-05   TIME AVG. FORCE       2.944E-05
 LARGEST SCALED RESIDUAL FORCE     -4.906E-17   AT NODE        587   DOF  2
   INSTANCE: PLATE-1                                                                         
  CORRESPONDING RESIDUAL FORCE     -4.906E-17
 LARGEST INCREMENT OF DISP.         1.064E-08   AT NODE        960   DOF  2
   INSTANCE: PLATE-1                                                                         
 LARGEST CORRECTION TO DISP.       -9.051E-14   AT NODE       3388   DOF  2
   INSTANCE: PLATE-1                                                                         
          THE FORCE     EQUILIBRIUM RESPONSE WAS LINEAR IN THIS INCREMENT

 AVERAGE HEAT FLUX                  1.127E-03   TIME AVG. HEAT FLUX   5.181E-04
 LARGEST RESIDUAL HEAT FLUX         9.875E-09   AT NODE        958   DOF 12
   INSTANCE: PLATE-1                                                                         
 LARGEST INCREMENT OF TEMP.         0.301       AT NODE        958   DOF 11
   INSTANCE: PLATE-1                                                                         
 LARGEST CORRECTION TO TEMP.        7.290E-02   AT NODE        958   DOF 11
   INSTANCE: PLATE-1                                                                         
 ESTIMATE OF TEMP.    CORRECTION    1.187E-09
 HEAT FLUX EQUILIB. ACCEPTED BASED ON SMALL RESIDUAL AND ESTIMATED CORRECTION

 ITERATION SUMMARY FOR THE INCREMENT:   1 TOTAL ITERATIONS, OF WHICH
   0 ARE SEVERE DISCONTINUITY ITERATIONS AND  1 ARE EQUILIBRIUM ITERATIONS.

 TIME INCREMENT COMPLETED  1.000E+04,  FRACTION OF STEP COMPLETED  6.000E-03
 STEP TIME COMPLETED       6.000E+04,  TOTAL TIME COMPLETED        6.000E+04


  INCREMENT     7 STARTS. ATTEMPT NUMBER  1, TIME INCREMENT  1.000E+04
 
	UNSYMMETRIC NEW DIRECT SPARSE SOLVER RUNNING ON
 	1 HOST x 1 MPI RANK PER HOST x 1 THREAD PER RANK
        NUMBER OF EQUATIONS:  131150
        NUMBER OF RHS:        1
        NUMBER OF FLOPS:      2.469e+11
        SOLVER ELAPSED TIME:  8.1s

               CONVERGENCE CHECKS FOR EQUILIBRIUM ITERATION     1


 AVERAGE FORCE                      6.034E-05   TIME AVG. FORCE       3.386E-05
 LARGEST SCALED RESIDUAL FORCE      4.609E-17   AT NODE        589   DOF  2
   INSTANCE: PLATE-1                                                                         
  CORRESPONDING RESIDUAL FORCE      4.609E-17
 LARGEST INCREMENT OF DISP.         1.064E-08   AT NODE        960   DOF  2
   INSTANCE: PLATE-1                                                                         
 LARGEST CORRECTION TO DISP.       -1.163E-13   AT NODE       3388   DOF  2
   INSTANCE: PLATE-1                                                                         
          THE FORCE     EQUILIBRIUM RESPONSE WAS LINEAR IN THIS INCREMENT

 AVERAGE HEAT FLUX                  1.582E-03   TIME AVG. HEAT FLUX   6.954E-04
 LARGEST RESIDUAL HEAT FLUX         1.515E-08   AT NODE        958   DOF 12
   INSTANCE: PLATE-1                                                                         
 LARGEST INCREMENT OF TEMP.         0.386       AT NODE        958   DOF 11
   INSTANCE: PLATE-1                                                                         
 LARGEST CORRECTION TO TEMP.        8.502E-02   AT NODE        958   DOF 11
   INSTANCE: PLATE-1                                                                         
 ESTIMATE OF TEMP.    CORRECTION    1.834E-09
 HEAT FLUX EQUILIB. ACCEPTED BASED ON SMALL RESIDUAL AND ESTIMATED CORRECTION

 ITERATION SUMMARY FOR THE INCREMENT:   1 TOTAL ITERATIONS, OF WHICH
   0 ARE SEVERE DISCONTINUITY ITERATIONS AND  1 ARE EQUILIBRIUM ITERATIONS.

 TIME INCREMENT COMPLETED  1.000E+04,  FRACTION OF STEP COMPLETED  7.000E-03
 STEP TIME COMPLETED       7.000E+04,  TOTAL TIME COMPLETED        7.000E+04


  INCREMENT     8 STARTS. ATTEMPT NUMBER  1, TIME INCREMENT  1.000E+04
 
	UNSYMMETRIC NEW DIRECT SPARSE SOLVER RUNNING ON
 	1 HOST x 1 MPI RANK PER HOST x 1 THREAD PER RANK
        NUMBER OF EQUATIONS:  131150
        NUMBER OF RHS:        1
        NUMBER OF FLOPS:      2.469e+11
        SOLVER ELAPSED TIME:  5.2s

               CONVERGENCE CHECKS FOR EQUILIBRIUM ITERATION     1


 AVERAGE FORCE                      6.896E-05   TIME AVG. FORCE       3.824E-05
 LARGEST SCALED RESIDUAL FORCE     -5.491E-17   AT NODE       1063   DOF  2
   INSTANCE: PLATE-1                                                                         
  CORRESPONDING RESIDUAL FORCE     -5.491E-17
 LARGEST INCREMENT OF DISP.         1.064E-08   AT NODE        960   DOF  2
   INSTANCE: PLATE-1                                                                         
 LARGEST CORRECTION TO DISP.       -1.428E-13   AT NODE       3388   DOF  2
   INSTANCE: PLATE-1                                                                         
          THE FORCE     EQUILIBRIUM RESPONSE WAS LINEAR IN THIS INCREMENT

 AVERAGE HEAT FLUX                  2.114E-03   TIME AVG. HEAT FLUX   8.980E-04
 LARGEST RESIDUAL HEAT FLUX         2.213E-08   AT NODE        958   DOF 12
   INSTANCE: PLATE-1                                                                         
 LARGEST INCREMENT OF TEMP.         0.488       AT NODE        958   DOF 11
   INSTANCE: PLATE-1                                                                         
 LARGEST CORRECTION TO TEMP.        0.101       AT NODE        958   DOF 11
   INSTANCE: PLATE-1                                                                         
 ESTIMATE OF TEMP.    CORRECTION    2.708E-09
 HEAT FLUX EQUILIB. ACCEPTED BASED ON SMALL RESIDUAL AND ESTIMATED CORRECTION

 ITERATION SUMMARY FOR THE INCREMENT:   1 TOTAL ITERATIONS, OF WHICH
   0 ARE SEVERE DISCONTINUITY ITERATIONS AND  1 ARE EQUILIBRIUM ITERATIONS.

 TIME INCREMENT COMPLETED  1.000E+04,  FRACTION OF STEP COMPLETED  8.000E-03
 STEP TIME COMPLETED       8.000E+04,  TOTAL TIME COMPLETED        8.000E+04


  INCREMENT     9 STARTS. ATTEMPT NUMBER  1, TIME INCREMENT  1.000E+04
 
	UNSYMMETRIC NEW DIRECT SPARSE SOLVER RUNNING ON
 	1 HOST x 1 MPI RANK PER HOST x 1 THREAD PER RANK
        NUMBER OF EQUATIONS:  131150
        NUMBER OF RHS:        1
        NUMBER OF FLOPS:      2.469e+11
        SOLVER ELAPSED TIME:  5.0s

               CONVERGENCE CHECKS FOR EQUILIBRIUM ITERATION     1


 AVERAGE FORCE                      7.758E-05   TIME AVG. FORCE       4.261E-05
 LARGEST SCALED RESIDUAL FORCE     -5.681E-17   AT NODE        615   DOF  2
   INSTANCE: PLATE-1                                                                         
  CORRESPONDING RESIDUAL FORCE     -5.681E-17
 LARGEST INCREMENT OF DISP.         1.064E-08   AT NODE        960   DOF  2
   INSTANCE: PLATE-1                                                                         
 LARGEST CORRECTION TO DISP.       -1.703E-13   AT NODE       3388   DOF  2
   INSTANCE: PLATE-1                                                                         
          THE FORCE     EQUILIBRIUM RESPONSE WAS LINEAR IN THIS INCREMENT

 AVERAGE HEAT FLUX                  2.727E-03   TIME AVG. HEAT FLUX   1.127E-03
 LARGEST RESIDUAL HEAT FLUX         3.117E-08   AT NODE        958   DOF 12
   INSTANCE: PLATE-1                                                                         
 LARGEST INCREMENT OF TEMP.         0.611       AT NODE        958   DOF 11
   INSTANCE: PLATE-1                                                                         
 LARGEST CORRECTION TO TEMP.        0.123       AT NODE        958   DOF 11
   INSTANCE: PLATE-1                                                                         
 ESTIMATE OF TEMP.    CORRECTION    3.871E-09
 HEAT FLUX EQUILIB. ACCEPTED BASED ON SMALL RESIDUAL AND ESTIMATED CORRECTION

 ITERATION SUMMARY FOR THE INCREMENT:   1 TOTAL ITERATIONS, OF WHICH
   0 ARE SEVERE DISCONTINUITY ITERATIONS AND  1 ARE EQUILIBRIUM ITERATIONS.

 TIME INCREMENT COMPLETED  1.000E+04,  FRACTION OF STEP COMPLETED  9.000E-03
 STEP TIME COMPLETED       9.000E+04,  TOTAL TIME COMPLETED        9.000E+04


  INCREMENT    10 STARTS. ATTEMPT NUMBER  1, TIME INCREMENT  1.000E+04
 
	UNSYMMETRIC NEW DIRECT SPARSE SOLVER RUNNING ON
 	1 HOST x 1 MPI RANK PER HOST x 1 THREAD PER RANK
        NUMBER OF EQUATIONS:  131150
        NUMBER OF RHS:        1
        NUMBER OF FLOPS:      2.469e+11
        SOLVER ELAPSED TIME:  5.1s

               CONVERGENCE CHECKS FOR EQUILIBRIUM ITERATION     1


 AVERAGE FORCE                      8.620E-05   TIME AVG. FORCE       4.697E-05
 LARGEST SCALED RESIDUAL FORCE      6.695E-17   AT NODE        592   DOF  2
   INSTANCE: PLATE-1                                                                         
  CORRESPONDING RESIDUAL FORCE      6.695E-17
 LARGEST INCREMENT OF DISP.         1.064E-08   AT NODE        960   DOF  2
   INSTANCE: PLATE-1                                                                         
 LARGEST CORRECTION TO DISP.       -1.988E-13   AT NODE       3388   DOF  2
   INSTANCE: PLATE-1                                                                         
          THE FORCE     EQUILIBRIUM RESPONSE WAS LINEAR IN THIS INCREMENT

 AVERAGE HEAT FLUX                  3.424E-03   TIME AVG. HEAT FLUX   1.382E-03
 LARGEST RESIDUAL HEAT FLUX         4.262E-08   AT NODE        958   DOF 12
   INSTANCE: PLATE-1                                                                         
 LARGEST INCREMENT OF TEMP.         0.764       AT NODE        958   DOF 11
   INSTANCE: PLATE-1                                                                         
 LARGEST CORRECTION TO TEMP.        0.153       AT NODE        958   DOF 11
   INSTANCE: PLATE-1                                                                         
 ESTIMATE OF TEMP.    CORRECTION    5.400E-09
 HEAT FLUX EQUILIB. ACCEPTED BASED ON SMALL RESIDUAL AND ESTIMATED CORRECTION

 ITERATION SUMMARY FOR THE INCREMENT:   1 TOTAL ITERATIONS, OF WHICH
   0 ARE SEVERE DISCONTINUITY ITERATIONS AND  1 ARE EQUILIBRIUM ITERATIONS.

 TIME INCREMENT COMPLETED  1.000E+04,  FRACTION OF STEP COMPLETED  1.000E-02
 STEP TIME COMPLETED       1.000E+05,  TOTAL TIME COMPLETED        1.000E+05


  INCREMENT    11 STARTS. ATTEMPT NUMBER  1, TIME INCREMENT  1.000E+04
 
	UNSYMMETRIC NEW DIRECT SPARSE SOLVER RUNNING ON
 	1 HOST x 1 MPI RANK PER HOST x 1 THREAD PER RANK
        NUMBER OF EQUATIONS:  131150
        NUMBER OF RHS:        1
        NUMBER OF FLOPS:      2.469e+11
        SOLVER ELAPSED TIME:  5.2s

               CONVERGENCE CHECKS FOR EQUILIBRIUM ITERATION     1


 AVERAGE FORCE                      9.481E-05   TIME AVG. FORCE       5.132E-05
 LARGEST SCALED RESIDUAL FORCE      6.473E-17   AT NODE       1069   DOF  2
   INSTANCE: PLATE-1                                                                         
  CORRESPONDING RESIDUAL FORCE      6.473E-17
 LARGEST INCREMENT OF DISP.         1.064E-08   AT NODE        960   DOF  2
   INSTANCE: PLATE-1                                                                         
 LARGEST CORRECTION TO DISP.       -2.287E-13   AT NODE       3388   DOF  2
   INSTANCE: PLATE-1                                                                         
          THE FORCE     EQUILIBRIUM RESPONSE WAS LINEAR IN THIS INCREMENT

 AVERAGE HEAT FLUX                  4.209E-03   TIME AVG. HEAT FLUX   1.665E-03
 LARGEST RESIDUAL HEAT FLUX         5.688E-08   AT NODE        958   DOF 12
   INSTANCE: PLATE-1                                                                         
 LARGEST INCREMENT OF TEMP.         0.955       AT NODE        958   DOF 11
   INSTANCE: PLATE-1                                                                         
 LARGEST CORRECTION TO TEMP.        0.192       AT NODE        958   DOF 11
   INSTANCE: PLATE-1                                                                         
 ESTIMATE OF TEMP.    CORRECTION    7.386E-09
 HEAT FLUX EQUILIB. ACCEPTED BASED ON SMALL RESIDUAL AND ESTIMATED CORRECTION

 ITERATION SUMMARY FOR THE INCREMENT:   1 TOTAL ITERATIONS, OF WHICH
   0 ARE SEVERE DISCONTINUITY ITERATIONS AND  1 ARE EQUILIBRIUM ITERATIONS.

 TIME INCREMENT COMPLETED  1.000E+04,  FRACTION OF STEP COMPLETED  1.100E-02
 STEP TIME COMPLETED       1.100E+05,  TOTAL TIME COMPLETED        1.100E+05


  INCREMENT    12 STARTS. ATTEMPT NUMBER  1, TIME INCREMENT  1.000E+04
 
	UNSYMMETRIC NEW DIRECT SPARSE SOLVER RUNNING ON
 	1 HOST x 1 MPI RANK PER HOST x 1 THREAD PER RANK
        NUMBER OF EQUATIONS:  131150
        NUMBER OF RHS:        1
        NUMBER OF FLOPS:      2.469e+11
        SOLVER ELAPSED TIME:  5.0s

               CONVERGENCE CHECKS FOR EQUILIBRIUM ITERATION     1


 AVERAGE FORCE                      1.034E-04   TIME AVG. FORCE       5.566E-05
 LARGEST SCALED RESIDUAL FORCE     -6.202E-17   AT NODE      23975   DOF  2
   INSTANCE: PLATE-1                                                                         
  CORRESPONDING RESIDUAL FORCE     -6.202E-17
 LARGEST INCREMENT OF DISP.         1.064E-08   AT NODE        960   DOF  2
   INSTANCE: PLATE-1                                                                         
 LARGEST CORRECTION TO DISP.       -2.599E-13   AT NODE       2699   DOF  2
   INSTANCE: PLATE-1                                                                         
          THE FORCE     EQUILIBRIUM RESPONSE WAS LINEAR IN THIS INCREMENT

 AVERAGE HEAT FLUX                  5.091E-03   TIME AVG. HEAT FLUX   1.976E-03
 LARGEST RESIDUAL HEAT FLUX         7.429E-08   AT NODE        958   DOF 12
   INSTANCE: PLATE-1                                                                         
 LARGEST INCREMENT OF TEMP.          1.20       AT NODE        958   DOF 11
   INSTANCE: PLATE-1                                                                         
 LARGEST CORRECTION TO TEMP.        0.245       AT NODE        958   DOF 11
   INSTANCE: PLATE-1                                                                         
 ESTIMATE OF TEMP.    CORRECTION    9.943E-09
 HEAT FLUX EQUILIB. ACCEPTED BASED ON SMALL RESIDUAL AND ESTIMATED CORRECTION

 ITERATION SUMMARY FOR THE INCREMENT:   1 TOTAL ITERATIONS, OF WHICH
   0 ARE SEVERE DISCONTINUITY ITERATIONS AND  1 ARE EQUILIBRIUM ITERATIONS.

 TIME INCREMENT COMPLETED  1.000E+04,  FRACTION OF STEP COMPLETED  1.200E-02
 STEP TIME COMPLETED       1.200E+05,  TOTAL TIME COMPLETED        1.200E+05


  INCREMENT    13 STARTS. ATTEMPT NUMBER  1, TIME INCREMENT  1.000E+04
 
	UNSYMMETRIC NEW DIRECT SPARSE SOLVER RUNNING ON
 	1 HOST x 1 MPI RANK PER HOST x 1 THREAD PER RANK
        NUMBER OF EQUATIONS:  131150
        NUMBER OF RHS:        1
        NUMBER OF FLOPS:      2.469e+11
        SOLVER ELAPSED TIME:  5.1s

               CONVERGENCE CHECKS FOR EQUILIBRIUM ITERATION     1


 AVERAGE FORCE                      1.120E-04   TIME AVG. FORCE       6.000E-05
 LARGEST SCALED RESIDUAL FORCE     -5.856E-17   AT NODE       1146   DOF  2
   INSTANCE: PLATE-1                                                                         
  CORRESPONDING RESIDUAL FORCE     -5.856E-17
 LARGEST INCREMENT OF DISP.         1.064E-08   AT NODE        960   DOF  2
   INSTANCE: PLATE-1                                                                         
 LARGEST CORRECTION TO DISP.       -2.927E-13   AT NODE       2660   DOF  2
   INSTANCE: PLATE-1                                                                         
          THE FORCE     EQUILIBRIUM RESPONSE WAS LINEAR IN THIS INCREMENT

 AVERAGE HEAT FLUX                  6.076E-03   TIME AVG. HEAT FLUX   2.318E-03
 LARGEST RESIDUAL HEAT FLUX         9.521E-08   AT NODE        958   DOF 12
   INSTANCE: PLATE-1                                                                         
 LARGEST INCREMENT OF TEMP.          1.52       AT NODE        958   DOF 11
   INSTANCE: PLATE-1                                                                         
 LARGEST CORRECTION TO TEMP.        0.319       AT NODE        958   DOF 11
   INSTANCE: PLATE-1                                                                         
 ESTIMATE OF TEMP.    CORRECTION    1.321E-08
 HEAT FLUX EQUILIB. ACCEPTED BASED ON SMALL RESIDUAL AND ESTIMATED CORRECTION

 ITERATION SUMMARY FOR THE INCREMENT:   1 TOTAL ITERATIONS, OF WHICH
   0 ARE SEVERE DISCONTINUITY ITERATIONS AND  1 ARE EQUILIBRIUM ITERATIONS.

 TIME INCREMENT COMPLETED  1.000E+04,  FRACTION OF STEP COMPLETED  1.300E-02
 STEP TIME COMPLETED       1.300E+05,  TOTAL TIME COMPLETED        1.300E+05


  INCREMENT    14 STARTS. ATTEMPT NUMBER  1, TIME INCREMENT  1.000E+04
 
	UNSYMMETRIC NEW DIRECT SPARSE SOLVER RUNNING ON
 	1 HOST x 1 MPI RANK PER HOST x 1 THREAD PER RANK
        NUMBER OF EQUATIONS:  131150
        NUMBER OF RHS:        1
        NUMBER OF FLOPS:      2.469e+11
        SOLVER ELAPSED TIME:  5.1s

               CONVERGENCE CHECKS FOR EQUILIBRIUM ITERATION     1


 AVERAGE FORCE                      1.206E-04   TIME AVG. FORCE       6.433E-05
 LARGEST SCALED RESIDUAL FORCE      6.513E-17   AT NODE       1100   DOF  2
   INSTANCE: PLATE-1                                                                         
  CORRESPONDING RESIDUAL FORCE      6.513E-17
 LARGEST INCREMENT OF DISP.         1.064E-08   AT NODE        960   DOF  2
   INSTANCE: PLATE-1                                                                         
 LARGEST CORRECTION TO DISP.       -3.273E-13   AT NODE       2660   DOF  2
   INSTANCE: PLATE-1                                                                         
          THE FORCE     EQUILIBRIUM RESPONSE WAS LINEAR IN THIS INCREMENT

 AVERAGE HEAT FLUX                  7.180E-03   TIME AVG. HEAT FLUX   2.692E-03
 LARGEST RESIDUAL HEAT FLUX         1.199E-07   AT NODE        958   DOF 12
   INSTANCE: PLATE-1                                                                         
 LARGEST INCREMENT OF TEMP.          1.94       AT NODE        958   DOF 11
   INSTANCE: PLATE-1                                                                         
 LARGEST CORRECTION TO TEMP.        0.421       AT NODE        958   DOF 11
   INSTANCE: PLATE-1                                                                         
 ESTIMATE OF TEMP.    CORRECTION    1.734E-08
 HEAT FLUX EQUILIB. ACCEPTED BASED ON SMALL RESIDUAL AND ESTIMATED CORRECTION

 ITERATION SUMMARY FOR THE INCREMENT:   1 TOTAL ITERATIONS, OF WHICH
   0 ARE SEVERE DISCONTINUITY ITERATIONS AND  1 ARE EQUILIBRIUM ITERATIONS.

 TIME INCREMENT COMPLETED  1.000E+04,  FRACTION OF STEP COMPLETED  1.400E-02
 STEP TIME COMPLETED       1.400E+05,  TOTAL TIME COMPLETED        1.400E+05


  INCREMENT    15 STARTS. ATTEMPT NUMBER  1, TIME INCREMENT  1.000E+04
 
	UNSYMMETRIC NEW DIRECT SPARSE SOLVER RUNNING ON
 	1 HOST x 1 MPI RANK PER HOST x 1 THREAD PER RANK
        NUMBER OF EQUATIONS:  131150
        NUMBER OF RHS:        1
        NUMBER OF FLOPS:      2.469e+11
        SOLVER ELAPSED TIME:  5.1s

               CONVERGENCE CHECKS FOR EQUILIBRIUM ITERATION     1


 AVERAGE FORCE                      1.293E-04   TIME AVG. FORCE       6.866E-05
 LARGEST SCALED RESIDUAL FORCE      7.047E-17   AT NODE      20063   DOF  2
   INSTANCE: PLATE-1                                                                         
  CORRESPONDING RESIDUAL FORCE      7.047E-17
 LARGEST INCREMENT OF DISP.         1.064E-08   AT NODE        960   DOF  2
   INSTANCE: PLATE-1                                                                         
 LARGEST CORRECTION TO DISP.       -3.638E-13   AT NODE       2660   DOF  2
   INSTANCE: PLATE-1                                                                         
          THE FORCE     EQUILIBRIUM RESPONSE WAS LINEAR IN THIS INCREMENT

 AVERAGE HEAT FLUX                  8.432E-03   TIME AVG. HEAT FLUX   3.102E-03
 LARGEST RESIDUAL HEAT FLUX         1.487E-07   AT NODE        958   DOF 12
   INSTANCE: PLATE-1                                                                         
 LARGEST INCREMENT OF TEMP.          2.51       AT NODE        958   DOF 11
   INSTANCE: PLATE-1                                                                         
 LARGEST CORRECTION TO TEMP.        0.565       AT NODE        958   DOF 11
   INSTANCE: PLATE-1                                                                         
 ESTIMATE OF TEMP.    CORRECTION    2.256E-08
 HEAT FLUX EQUILIB. ACCEPTED BASED ON SMALL RESIDUAL AND ESTIMATED CORRECTION

 ITERATION SUMMARY FOR THE INCREMENT:   1 TOTAL ITERATIONS, OF WHICH
   0 ARE SEVERE DISCONTINUITY ITERATIONS AND  1 ARE EQUILIBRIUM ITERATIONS.

 TIME INCREMENT COMPLETED  1.000E+04,  FRACTION OF STEP COMPLETED  1.500E-02
 STEP TIME COMPLETED       1.500E+05,  TOTAL TIME COMPLETED        1.500E+05


  INCREMENT    16 STARTS. ATTEMPT NUMBER  1, TIME INCREMENT  1.000E+04
 
	UNSYMMETRIC NEW DIRECT SPARSE SOLVER RUNNING ON
 	1 HOST x 1 MPI RANK PER HOST x 1 THREAD PER RANK
        NUMBER OF EQUATIONS:  131150
        NUMBER OF RHS:        1
        NUMBER OF FLOPS:      2.469e+11
        SOLVER ELAPSED TIME:  12s

               CONVERGENCE CHECKS FOR EQUILIBRIUM ITERATION     1


 AVERAGE FORCE                      1.379E-04   TIME AVG. FORCE       7.298E-05
 LARGEST SCALED RESIDUAL FORCE      6.727E-17   AT NODE       1545   DOF  2
   INSTANCE: PLATE-1                                                                         
  CORRESPONDING RESIDUAL FORCE      6.727E-17
 LARGEST INCREMENT OF DISP.         1.064E-08   AT NODE        960   DOF  2
   INSTANCE: PLATE-1                                                                         
 LARGEST CORRECTION TO DISP.       -4.020E-13   AT NODE       2660   DOF  2
   INSTANCE: PLATE-1                                                                         
          THE FORCE     EQUILIBRIUM RESPONSE WAS LINEAR IN THIS INCREMENT

 AVERAGE HEAT FLUX                  9.873E-03   TIME AVG. HEAT FLUX   3.553E-03
 LARGEST RESIDUAL HEAT FLUX         1.817E-07   AT NODE        958   DOF 12
   INSTANCE: PLATE-1                                                                         
 LARGEST INCREMENT OF TEMP.          3.28       AT NODE        958   DOF 11
   INSTANCE: PLATE-1                                                                         
 LARGEST CORRECTION TO TEMP.        0.773       AT NODE        958   DOF 11
   INSTANCE: PLATE-1                                                                         
 ESTIMATE OF TEMP.    CORRECTION    2.913E-08
 HEAT FLUX EQUILIB. ACCEPTED BASED ON SMALL RESIDUAL AND ESTIMATED CORRECTION

 ITERATION SUMMARY FOR THE INCREMENT:   1 TOTAL ITERATIONS, OF WHICH
   0 ARE SEVERE DISCONTINUITY ITERATIONS AND  1 ARE EQUILIBRIUM ITERATIONS.

 TIME INCREMENT COMPLETED  1.000E+04,  FRACTION OF STEP COMPLETED  1.600E-02
 STEP TIME COMPLETED       1.600E+05,  TOTAL TIME COMPLETED        1.600E+05


  INCREMENT    17 STARTS. ATTEMPT NUMBER  1, TIME INCREMENT  1.000E+04
 
	UNSYMMETRIC NEW DIRECT SPARSE SOLVER RUNNING ON
 	1 HOST x 1 MPI RANK PER HOST x 1 THREAD PER RANK
        NUMBER OF EQUATIONS:  131150
        NUMBER OF RHS:        1
        NUMBER OF FLOPS:      2.469e+11
        SOLVER ELAPSED TIME:  9.8s

               CONVERGENCE CHECKS FOR EQUILIBRIUM ITERATION     1


 AVERAGE FORCE                      1.465E-04   TIME AVG. FORCE       7.731E-05
 LARGEST SCALED RESIDUAL FORCE     -6.654E-17   AT NODE        622   DOF  2
   INSTANCE: PLATE-1                                                                         
  CORRESPONDING RESIDUAL FORCE     -6.654E-17
 LARGEST INCREMENT OF DISP.         1.064E-08   AT NODE        960   DOF  2
   INSTANCE: PLATE-1                                                                         
 LARGEST CORRECTION TO DISP.       -4.419E-13   AT NODE       2660   DOF  2
   INSTANCE: PLATE-1                                                                         
          THE FORCE     EQUILIBRIUM RESPONSE WAS LINEAR IN THIS INCREMENT

 AVERAGE HEAT FLUX                  1.156E-02   TIME AVG. HEAT FLUX   4.053E-03
 LARGEST RESIDUAL HEAT FLUX         2.193E-07   AT NODE        958   DOF 12
   INSTANCE: PLATE-1                                                                         
 LARGEST INCREMENT OF TEMP.          4.36       AT NODE        958   DOF 11
   INSTANCE: PLATE-1                                                                         
 LARGEST CORRECTION TO TEMP.         1.08       AT NODE        958   DOF 11
   INSTANCE: PLATE-1                                                                         
 ESTIMATE OF TEMP.    CORRECTION    3.744E-08
 HEAT FLUX EQUILIB. ACCEPTED BASED ON SMALL RESIDUAL AND ESTIMATED CORRECTION

 ITERATION SUMMARY FOR THE INCREMENT:   1 TOTAL ITERATIONS, OF WHICH
   0 ARE SEVERE DISCONTINUITY ITERATIONS AND  1 ARE EQUILIBRIUM ITERATIONS.

 TIME INCREMENT COMPLETED  1.000E+04,  FRACTION OF STEP COMPLETED  1.700E-02
 STEP TIME COMPLETED       1.700E+05,  TOTAL TIME COMPLETED        1.700E+05


  INCREMENT    18 STARTS. ATTEMPT NUMBER  1, TIME INCREMENT  1.000E+04
 
	UNSYMMETRIC NEW DIRECT SPARSE SOLVER RUNNING ON
 	1 HOST x 1 MPI RANK PER HOST x 1 THREAD PER RANK
        NUMBER OF EQUATIONS:  131150
        NUMBER OF RHS:        1
        NUMBER OF FLOPS:      2.469e+11
        SOLVER ELAPSED TIME:  10s

               CONVERGENCE CHECKS FOR EQUILIBRIUM ITERATION     1


 AVERAGE FORCE                      1.551E-04   TIME AVG. FORCE       8.163E-05
 LARGEST SCALED RESIDUAL FORCE     -6.776E-17   AT NODE        716   DOF  2
   INSTANCE: PLATE-1                                                                         
  CORRESPONDING RESIDUAL FORCE     -6.776E-17
 LARGEST INCREMENT OF DISP.         1.064E-08   AT NODE        960   DOF  2
   INSTANCE: PLATE-1                                                                         
 LARGEST CORRECTION TO DISP.       -4.832E-13   AT NODE       2660   DOF  2
   INSTANCE: PLATE-1                                                                         
          THE FORCE     EQUILIBRIUM RESPONSE WAS LINEAR IN THIS INCREMENT

 AVERAGE HEAT FLUX                  1.360E-02   TIME AVG. HEAT FLUX   4.615E-03
 LARGEST RESIDUAL HEAT FLUX        -3.038E-07   AT NODE       2858   DOF 12
   INSTANCE: PLATE-1                                                                         
 LARGEST INCREMENT OF TEMP.          5.91       AT NODE        958   DOF 11
   INSTANCE: PLATE-1                                                                         
 LARGEST CORRECTION TO TEMP.         1.55       AT NODE        958   DOF 11
   INSTANCE: PLATE-1                                                                         
 ESTIMATE OF TEMP.    CORRECTION   -5.574E-08
 HEAT FLUX EQUILIB. ACCEPTED BASED ON SMALL RESIDUAL AND ESTIMATED CORRECTION

 ITERATION SUMMARY FOR THE INCREMENT:   1 TOTAL ITERATIONS, OF WHICH
   0 ARE SEVERE DISCONTINUITY ITERATIONS AND  1 ARE EQUILIBRIUM ITERATIONS.

 TIME INCREMENT COMPLETED  1.000E+04,  FRACTION OF STEP COMPLETED  1.800E-02
 STEP TIME COMPLETED       1.800E+05,  TOTAL TIME COMPLETED        1.800E+05


  INCREMENT    19 STARTS. ATTEMPT NUMBER  1, TIME INCREMENT  1.000E+04
 
	UNSYMMETRIC NEW DIRECT SPARSE SOLVER RUNNING ON
 	1 HOST x 1 MPI RANK PER HOST x 1 THREAD PER RANK
        NUMBER OF EQUATIONS:  131150
        NUMBER OF RHS:        1
        NUMBER OF FLOPS:      2.469e+11
        SOLVER ELAPSED TIME:  11s

               CONVERGENCE CHECKS FOR EQUILIBRIUM ITERATION     1


 AVERAGE FORCE                      1.636E-04   TIME AVG. FORCE       8.594E-05
 LARGEST SCALED RESIDUAL FORCE      5.065E-17   AT NODE        668   DOF  2
   INSTANCE: PLATE-1                                                                         
  CORRESPONDING RESIDUAL FORCE      5.065E-17
 LARGEST INCREMENT OF DISP.         1.064E-08   AT NODE        960   DOF  2
   INSTANCE: PLATE-1                                                                         
 LARGEST CORRECTION TO DISP.       -5.249E-13   AT NODE       2660   DOF  2
   INSTANCE: PLATE-1                                                                         
          THE FORCE     EQUILIBRIUM RESPONSE WAS LINEAR IN THIS INCREMENT

 AVERAGE HEAT FLUX                  1.617E-02   TIME AVG. HEAT FLUX   5.257E-03
 LARGEST RESIDUAL HEAT FLUX        -6.205E-07   AT NODE       2858   DOF 12
   INSTANCE: PLATE-1                                                                         
 LARGEST INCREMENT OF TEMP.          8.20       AT NODE        958   DOF 11
   INSTANCE: PLATE-1                                                                         
 LARGEST CORRECTION TO TEMP.         2.29       AT NODE        958   DOF 11
   INSTANCE: PLATE-1                                                                         
 ESTIMATE OF TEMP.    CORRECTION   -1.238E-07
 HEAT FLUX EQUILIB. ACCEPTED BASED ON SMALL RESIDUAL AND ESTIMATED CORRECTION

 ITERATION SUMMARY FOR THE INCREMENT:   1 TOTAL ITERATIONS, OF WHICH
   0 ARE SEVERE DISCONTINUITY ITERATIONS AND  1 ARE EQUILIBRIUM ITERATIONS.

 TIME INCREMENT COMPLETED  1.000E+04,  FRACTION OF STEP COMPLETED  1.900E-02
 STEP TIME COMPLETED       1.900E+05,  TOTAL TIME COMPLETED        1.900E+05


  INCREMENT    20 STARTS. ATTEMPT NUMBER  1, TIME INCREMENT  1.000E+04
 
	UNSYMMETRIC NEW DIRECT SPARSE SOLVER RUNNING ON
 	1 HOST x 1 MPI RANK PER HOST x 1 THREAD PER RANK
        NUMBER OF EQUATIONS:  131150
        NUMBER OF RHS:        1
        NUMBER OF FLOPS:      2.469e+11
        SOLVER ELAPSED TIME:  11s

               CONVERGENCE CHECKS FOR EQUILIBRIUM ITERATION     1


 AVERAGE FORCE                      1.722E-04   TIME AVG. FORCE       9.026E-05
 LARGEST SCALED RESIDUAL FORCE     -6.397E-17   AT NODE      20063   DOF  2
   INSTANCE: PLATE-1                                                                         
  CORRESPONDING RESIDUAL FORCE     -6.397E-17
 LARGEST INCREMENT OF DISP.         1.064E-08   AT NODE        960   DOF  2
   INSTANCE: PLATE-1                                                                         
 LARGEST CORRECTION TO DISP.       -5.647E-13   AT NODE       2660   DOF  2
   INSTANCE: PLATE-1                                                                         
          THE FORCE     EQUILIBRIUM RESPONSE WAS LINEAR IN THIS INCREMENT

 AVERAGE HEAT FLUX                  1.959E-02   TIME AVG. HEAT FLUX   6.011E-03
 LARGEST RESIDUAL HEAT FLUX        -1.790E-06   AT NODE       2858   DOF 12
   INSTANCE: PLATE-1                                                                         
 LARGEST INCREMENT OF TEMP.          11.7       AT NODE        958   DOF 11
   INSTANCE: PLATE-1                                                                         
 LARGEST CORRECTION TO TEMP.         3.51       AT NODE        958   DOF 11
   INSTANCE: PLATE-1                                                                         
 ESTIMATE OF TEMP.    CORRECTION   -3.936E-07
 HEAT FLUX EQUILIB. ACCEPTED BASED ON SMALL RESIDUAL AND ESTIMATED CORRECTION

 ITERATION SUMMARY FOR THE INCREMENT:   1 TOTAL ITERATIONS, OF WHICH
   0 ARE SEVERE DISCONTINUITY ITERATIONS AND  1 ARE EQUILIBRIUM ITERATIONS.

 TIME INCREMENT COMPLETED  1.000E+04,  FRACTION OF STEP COMPLETED  2.000E-02
 STEP TIME COMPLETED       2.000E+05,  TOTAL TIME COMPLETED        2.000E+05


  INCREMENT    21 STARTS. ATTEMPT NUMBER  1, TIME INCREMENT  1.000E+04
 
	UNSYMMETRIC NEW DIRECT SPARSE SOLVER RUNNING ON
 	1 HOST x 1 MPI RANK PER HOST x 1 THREAD PER RANK
        NUMBER OF EQUATIONS:  131150
        NUMBER OF RHS:        1
        NUMBER OF FLOPS:      2.469e+11
        SOLVER ELAPSED TIME:  8.1s

               CONVERGENCE CHECKS FOR EQUILIBRIUM ITERATION     1


 AVERAGE FORCE                      1.808E-04   TIME AVG. FORCE       9.457E-05
 LARGEST SCALED RESIDUAL FORCE     -5.806E-17   AT NODE        594   DOF  2
   INSTANCE: PLATE-1                                                                         
  CORRESPONDING RESIDUAL FORCE     -5.806E-17
 LARGEST INCREMENT OF DISP.         1.064E-08   AT NODE        960   DOF  2
   INSTANCE: PLATE-1                                                                         
 LARGEST CORRECTION TO DISP.       -5.955E-13   AT NODE       2662   DOF  2
   INSTANCE: PLATE-1                                                                         
          THE FORCE     EQUILIBRIUM RESPONSE WAS LINEAR IN THIS INCREMENT

 AVERAGE HEAT FLUX                  2.433E-02   TIME AVG. HEAT FLUX   6.927E-03
 LARGEST RESIDUAL HEAT FLUX         8.728E-05   AT NODE       2859   DOF 12
   INSTANCE: PLATE-1                                                                         
 LARGEST INCREMENT OF TEMP.          17.3       AT NODE        958   DOF 11
   INSTANCE: PLATE-1                                                                         
 LARGEST CORRECTION TO TEMP.         5.64       AT NODE        958   DOF 11
   INSTANCE: PLATE-1                                                                         
          HEAT FLUX EQUILIBRIUM NOT ACHIEVED WITHIN TOLERANCE.
 
	UNSYMMETRIC NEW DIRECT SPARSE SOLVER RUNNING ON
 	1 HOST x 1 MPI RANK PER HOST x 1 THREAD PER RANK
        NUMBER OF EQUATIONS:  131150
        NUMBER OF RHS:        1
        NUMBER OF FLOPS:      2.469e+11
        SOLVER ELAPSED TIME:  6.0s

               CONVERGENCE CHECKS FOR EQUILIBRIUM ITERATION     2


 AVERAGE FORCE                      1.808E-04   TIME AVG. FORCE       9.457E-05
 LARGEST SCALED RESIDUAL FORCE      5.390E-17   AT NODE        715   DOF  2
   INSTANCE: PLATE-1                                                                         
  CORRESPONDING RESIDUAL FORCE      5.390E-17
 LARGEST INCREMENT OF DISP.         1.064E-08   AT NODE        960   DOF  2
   INSTANCE: PLATE-1                                                                         
 LARGEST CORRECTION TO DISP.        8.773E-22   AT NODE         56   DOF  3
   INSTANCE: PLATE-1                                                                         
          THE FORCE     EQUILIBRIUM EQUATIONS HAVE CONVERGED

 AVERAGE HEAT FLUX                  2.433E-02   TIME AVG. HEAT FLUX   6.927E-03
 LARGEST RESIDUAL HEAT FLUX        -3.948E-13   AT NODE       4559   DOF 11
   INSTANCE: PLATE-1                                                                         
 LARGEST INCREMENT OF TEMP.          17.3       AT NODE        958   DOF 11
   INSTANCE: PLATE-1                                                                         
 LARGEST CORRECTION TO TEMP.       -7.926E-05   AT NODE       2858   DOF 12
   INSTANCE: PLATE-1                                                                         
          THE HEAT FLUX EQUILIBRIUM EQUATIONS HAVE CONVERGED

 ITERATION SUMMARY FOR THE INCREMENT:   2 TOTAL ITERATIONS, OF WHICH
   0 ARE SEVERE DISCONTINUITY ITERATIONS AND  2 ARE EQUILIBRIUM ITERATIONS.

 TIME INCREMENT COMPLETED  1.000E+04,  FRACTION OF STEP COMPLETED  2.100E-02
 STEP TIME COMPLETED       2.100E+05,  TOTAL TIME COMPLETED        2.100E+05


  INCREMENT    22 STARTS. ATTEMPT NUMBER  1, TIME INCREMENT  1.000E+04
 
	UNSYMMETRIC NEW DIRECT SPARSE SOLVER RUNNING ON
 	1 HOST x 1 MPI RANK PER HOST x 1 THREAD PER RANK
        NUMBER OF EQUATIONS:  131150
        NUMBER OF RHS:        1
        NUMBER OF FLOPS:      2.469e+11
        SOLVER ELAPSED TIME:  5.4s
 

 ***WARNING: THE SYSTEM MATRIX HAS 1 NEGATIVE EIGENVALUES.

     NEGATIVE EIGENVALUES MEAN THAT THE SYSTEM MATRIX IS NOT 
     POSITIVE DEFINITE:
     FOR EXAMPLE, A BIFURCATION (BUCKLING) LOAD MAY HAVE BEEN EXCEEDED.

               CONVERGENCE CHECKS FOR EQUILIBRIUM ITERATION     1


 AVERAGE FORCE                      1.894E-04   TIME AVG. FORCE       9.888E-05
 LARGEST SCALED RESIDUAL FORCE     -6.326E-17   AT NODE       1068   DOF  2
   INSTANCE: PLATE-1                                                                         
  CORRESPONDING RESIDUAL FORCE     -6.326E-17
 LARGEST INCREMENT OF DISP.         1.064E-08   AT NODE        960   DOF  2
   INSTANCE: PLATE-1                                                                         
 LARGEST CORRECTION TO DISP.       -5.494E-13   AT NODE        958   DOF  1
   INSTANCE: PLATE-1                                                                         
          THE FORCE     EQUILIBRIUM RESPONSE WAS LINEAR IN THIS INCREMENT

 AVERAGE HEAT FLUX                  3.145E-02   TIME AVG. HEAT FLUX   8.095E-03
 LARGEST RESIDUAL HEAT FLUX        -9.459E-05   AT NODE       2858   DOF 12
   INSTANCE: PLATE-1                                                                         
 LARGEST INCREMENT OF TEMP.          27.0       AT NODE        958   DOF 11
   INSTANCE: PLATE-1                                                                         
 LARGEST CORRECTION TO TEMP.         9.65       AT NODE        958   DOF 11
   INSTANCE: PLATE-1                                                                         
          HEAT FLUX EQUILIBRIUM NOT ACHIEVED WITHIN TOLERANCE.
 
	UNSYMMETRIC NEW DIRECT SPARSE SOLVER RUNNING ON
 	1 HOST x 1 MPI RANK PER HOST x 1 THREAD PER RANK
        NUMBER OF EQUATIONS:  131150
        NUMBER OF RHS:        1
        NUMBER OF FLOPS:      2.469e+11
        SOLVER ELAPSED TIME:  5.1s
 

 ***WARNING: THE SYSTEM MATRIX HAS 1 NEGATIVE EIGENVALUES.
             EXPLANATIONS ARE SUGGESTED AFTER THE FIRST OCCURRENCE OF THIS MESSAGE.

               CONVERGENCE CHECKS FOR EQUILIBRIUM ITERATION     2


 AVERAGE FORCE                      1.894E-04   TIME AVG. FORCE       9.888E-05
 LARGEST SCALED RESIDUAL FORCE     -4.871E-17   AT NODE       1671   DOF  2
   INSTANCE: PLATE-1                                                                         
  CORRESPONDING RESIDUAL FORCE     -4.871E-17
 LARGEST INCREMENT OF DISP.         1.064E-08   AT NODE        960   DOF  2
   INSTANCE: PLATE-1                                                                         
 LARGEST CORRECTION TO DISP.        1.714E-21   AT NODE        481   DOF  3
   INSTANCE: PLATE-1                                                                         
          THE FORCE     EQUILIBRIUM EQUATIONS HAVE CONVERGED

 AVERAGE HEAT FLUX                  3.145E-02   TIME AVG. HEAT FLUX   8.095E-03
 LARGEST RESIDUAL HEAT FLUX        -3.467E-13   AT NODE      24176   DOF 11
   INSTANCE: PLATE-1                                                                         
 LARGEST INCREMENT OF TEMP.          27.0       AT NODE        958   DOF 11
   INSTANCE: PLATE-1                                                                         
 LARGEST CORRECTION TO TEMP.       -2.306E-03   AT NODE       1491   DOF 12
   INSTANCE: PLATE-1                                                                         
          THE HEAT FLUX EQUILIBRIUM EQUATIONS HAVE CONVERGED

 ITERATION SUMMARY FOR THE INCREMENT:   2 TOTAL ITERATIONS, OF WHICH
   0 ARE SEVERE DISCONTINUITY ITERATIONS AND  2 ARE EQUILIBRIUM ITERATIONS.

 TIME INCREMENT COMPLETED  1.000E+04,  FRACTION OF STEP COMPLETED  2.200E-02
 STEP TIME COMPLETED       2.200E+05,  TOTAL TIME COMPLETED        2.200E+05


  INCREMENT    23 STARTS. ATTEMPT NUMBER  1, TIME INCREMENT  1.000E+04
 
	UNSYMMETRIC NEW DIRECT SPARSE SOLVER RUNNING ON
 	1 HOST x 1 MPI RANK PER HOST x 1 THREAD PER RANK
        NUMBER OF EQUATIONS:  131150
        NUMBER OF RHS:        1
        NUMBER OF FLOPS:      2.469e+11
        SOLVER ELAPSED TIME:  5.1s
 

 ***WARNING: THE SYSTEM MATRIX HAS 8 NEGATIVE EIGENVALUES.
             EXPLANATIONS ARE SUGGESTED AFTER THE FIRST OCCURRENCE OF THIS MESSAGE.

               CONVERGENCE CHECKS FOR EQUILIBRIUM ITERATION     1


 AVERAGE FORCE                      1.980E-04   TIME AVG. FORCE       1.032E-04
 LARGEST SCALED RESIDUAL FORCE      6.294E-17   AT NODE        623   DOF  2
   INSTANCE: PLATE-1                                                                         
  CORRESPONDING RESIDUAL FORCE      6.294E-17
 LARGEST INCREMENT OF DISP.         1.064E-08   AT NODE        960   DOF  2
   INSTANCE: PLATE-1                                                                         
 LARGEST CORRECTION TO DISP.        1.321E-12   AT NODE       1436   DOF  2
   INSTANCE: PLATE-1                                                                         
          THE FORCE     EQUILIBRIUM RESPONSE WAS LINEAR IN THIS INCREMENT

 AVERAGE HEAT FLUX                  4.310E-02   TIME AVG. HEAT FLUX   9.686E-03
 LARGEST RESIDUAL HEAT FLUX         2.762E-04   AT NODE       2886   DOF 12
   INSTANCE: PLATE-1                                                                         
 LARGEST INCREMENT OF TEMP.          45.0       AT NODE        958   DOF 11
   INSTANCE: PLATE-1                                                                         
 LARGEST CORRECTION TO TEMP.         18.0       AT NODE        958   DOF 11
   INSTANCE: PLATE-1                                                                         
          HEAT FLUX EQUILIBRIUM NOT ACHIEVED WITHIN TOLERANCE.
 
	UNSYMMETRIC NEW DIRECT SPARSE SOLVER RUNNING ON
 	1 HOST x 1 MPI RANK PER HOST x 1 THREAD PER RANK
        NUMBER OF EQUATIONS:  131150
        NUMBER OF RHS:        1
        NUMBER OF FLOPS:      2.469e+11
        SOLVER ELAPSED TIME:  5.2s
 

 ***WARNING: THE SYSTEM MATRIX HAS 12 NEGATIVE EIGENVALUES.
             EXPLANATIONS ARE SUGGESTED AFTER THE FIRST OCCURRENCE OF THIS MESSAGE.
