1

   Abaqus 2023.HF4                                  Date 17-Sep-2024   Time 14:37:41
   For use by AALTO UNIVERSITY under license from Dassault Systemes or its subsidiary.

                                                                                 
                                                                                 
 STEP    1     INCREMENT     1     STEP TIME    0.00    


                        S T E P       1     C O U P L E D - T E M P E R A T U R E - D I S P L A C E M E N T   A N A L Y S I S


                                                                                          

          FIXED TIME INCREMENTS
          TIME INCREMENT IS                                    1.000E+04
          TIME PERIOD IS                                       1.000E+07

          CREEP AND SWELLING EFFECTS ARE OMITTED IN THIS STEP
          THE RATE DEPENDENCY WILL BE CONSIDERED IN THIS STEP

          CREEP AND SWELLING EFFECTS WILL BE IGNORED.

 CONVERGENCE TOLERANCE PARAMETERS FOR FORCE    
     CRITERION FOR RESIDUAL FORCE     FOR A NONLINEAR PROBLEM          5.000E-03
     CRITERION FOR DISP.    CORRECTION IN A NONLINEAR PROBLEM          1.000E-02
     INITIAL VALUE OF TIME AVERAGE FORCE                               1.000E-02
     AVERAGE FORCE     IS TIME AVERAGE FORCE    
     ALTERNATE CRIT. FOR RESIDUAL FORCE     FOR A NONLINEAR PROBLEM    2.000E-02
     CRITERION FOR ZERO FORCE     RELATIVE TO TIME AVRG. FORCE         1.000E-05
     CRITERION FOR RESIDUAL FORCE     WHEN THERE IS ZERO FLUX          1.000E-05
     CRITERION FOR DISP.    CORRECTION WHEN THERE IS ZERO FLUX         1.000E-03
     CRITERION FOR RESIDUAL FORCE     FOR A LINEAR INCREMENT           1.000E-08
     FIELD CONVERSION RATIO                                             1.00    
     CRITERION FOR ZERO FORCE     REL. TO TIME AVRG. MAX. FORCE        1.000E-05
     CRITERION FOR ZERO DISP.    RELATIVE TO CHARACTERISTIC LENGTH     1.000E-08

 CONVERGENCE TOLERANCE PARAMETERS FOR HEAT FLUX
     CRITERION FOR RESIDUAL HEAT FLUX FOR A NONLINEAR PROBLEM          5.000E-03
     CRITERION FOR TEMP.    CORRECTION IN A NONLINEAR PROBLEM          1.000E-02
     INITIAL VALUE OF TIME AVERAGE HEAT FLUX                           1.000E-02
     AVERAGE HEAT FLUX IS TIME AVERAGE HEAT FLUX
     ALTERNATE CRIT. FOR RESIDUAL HEAT FLUX FOR A NONLINEAR PROBLEM    2.000E-02
     CRITERION FOR ZERO HEAT FLUX RELATIVE TO TIME AVRG. HEAT FLUX     1.000E-05
     CRITERION FOR RESIDUAL HEAT FLUX WHEN THERE IS ZERO FLUX          1.000E-05
     CRITERION FOR TEMP.    CORRECTION WHEN THERE IS ZERO FLUX         1.000E-03
     CRITERION FOR RESIDUAL HEAT FLUX FOR A LINEAR INCREMENT           1.000E-08
     FIELD CONVERSION RATIO                                             1.00    
     CRITERION FOR ZERO HEAT FLUX REL. TO TIME AVRG. MAX. HEAT FLUX    1.000E-05

     VOLUMETRIC STRAIN COMPATIBILITY TOLERANCE FOR HYBRID SOLIDS       1.000E-05
     AXIAL STRAIN COMPATIBILITY TOLERANCE FOR HYBRID BEAMS             1.000E-05
     TRANS. SHEAR STRAIN COMPATIBILITY TOLERANCE FOR HYBRID BEAMS      1.000E-05
     SOFT CONTACT CONSTRAINT COMPATIBILITY TOLERANCE FOR P>P0          5.000E-03
     SOFT CONTACT CONSTRAINT COMPATIBILITY TOLERANCE FOR P=0.0         0.100    
     CONTACT FORCE ERROR TOLERANCE FOR CONVERT SDI=YES                 1.00    
     DISPLACEMENT COMPATIBILITY TOLERANCE FOR DCOUP ELEMENTS           1.000E-05
     ROTATION COMPATIBILITY TOLERANCE FOR DCOUP ELEMENTS               1.000E-05

 EQUILIBRIUM WILL BE CHECKED FOR SEVERE DISCONTINUITY ITERATIONS

 ITERATION CONTROL PARAMETERS:
     FIRST EQUILIBRIUM ITERATION FOR CONSECUTIVE DIVERGENCE CHECK              4
     EQUILIBRIUM ITERATION AFTER WHICH ALTERNATE RESIDUAL IS USED              9
     MAXIMUM EQUILIBRIUM ITERATIONS ALLOWED                                   16
     MAXIMUM ITERATIONS FOR SEVERE DISCONTINUITIES                            12
     GLOBAL STABILIZATION CONTROL IS NOT USED

          PRINT OF INCREMENT NUMBER, TIME, ETC., EVERY    1  INCREMENTS

     THE MAXIMUM NUMBER OF INCREMENTS IN THIS STEP IS                 1000000

          LARGE DISPLACEMENT THEORY WILL BE USED

          UNSYMMETRIC MATRIX STORAGE AND SOLUTION WILL BE USED

     LINEAR EXTRAPOLATION WILL BE USED

     CHARACTERISTIC ELEMENT LENGTH     8.915E-06

     DETAILS REGARDING ACTUAL SOLUTION WAVEFRONT REQUESTED

     DETAILED OUTPUT OF DIAGNOSTICS TO DATABASE REQUESTED

     PRINT OF INCREMENT NUMBER, TIME, ETC., TO THE MESSAGE FILE EVERY     1  INCREMENTS

     ELEMENT OPERATIONS WILL BE CARRIED OUT IN PARALLEL USING   8 THREADS ON 1 DOMAIN

     PARALLEL CONTACT TRACKING ENABLED


     COLLECTING MODEL CONSTRAINT INFORMATION FOR OVERCONSTRAINT CHECKS

     COLLECTING STEP CONSTRAINT INFORMATION FOR OVERCONSTRAINT CHECKS


  INCREMENT     1 STARTS. ATTEMPT NUMBER  1, TIME INCREMENT  1.000E+04
 
     INITIAL ELEMENT LOAD BALANCE
            DOMAIN    1     THREAD    NUMBER OF ELEMENTS
                              1            4712
                              2            4984
                              3            5112
                              4            4856
                              5            5712
                              6            4912
                              7            5880
                              8            5024
 
	UNSYMMETRIC NEW DIRECT SPARSE SOLVER RUNNING ON
 	1 HOST x 1 MPI RANK PER HOST x 8 THREADS PER RANK
        NUMBER OF EQUATIONS:  131150
        NUMBER OF RHS:        1
        NUMBER OF FLOPS:      2.469e+11
        SOLVER ELAPSED TIME:  1.4s

               CONVERGENCE CHECKS FOR EQUILIBRIUM ITERATION     1


 AVERAGE FORCE                      4.223E-06   TIME AVG. FORCE       4.223E-06
 LARGEST SCALED RESIDUAL FORCE      6.339E-16   AT NODE      24176   DOF  2
   INSTANCE: PLATE-1                                                                         
  CORRESPONDING RESIDUAL FORCE      6.339E-16
 LARGEST INCREMENT OF DISP.         1.064E-08   AT NODE        960   DOF  2
   INSTANCE: PLATE-1                                                                         
 LARGEST CORRECTION TO DISP.        1.064E-08   AT NODE        960   DOF  2
   INSTANCE: PLATE-1                                                                         
          THE FORCE     EQUILIBRIUM RESPONSE WAS LINEAR IN THIS INCREMENT

 AVERAGE HEAT FLUX                  2.277E-15   TIME AVG. HEAT FLUX   1.000E-02
 LARGEST RESIDUAL HEAT FLUX        -2.165E-13   AT NODE       3601   DOF 11
   INSTANCE: PLATE-1                                                                         
 LARGEST INCREMENT OF TEMP.        -3.227E-14   AT NODE       2001   DOF 11
   INSTANCE: PLATE-1                                                                         
 LARGEST CORRECTION TO TEMP.       -3.227E-14   AT NODE       2001   DOF 11
   INSTANCE: PLATE-1                                                                         
          THERE IS ZERO HEAT FLUX EVERYWHERE
 

 ***WARNING: THERE IS ZERO HEAT FLUX EVERYWHERE IN THE MODEL BASED ON THE 
             DEFAULT CRITERION. PLEASE CHECK THE VALUE OF THE AVERAGE HEAT FLUX 
             DURING THE CURRENT ITERATION TO VERIFY THAT THE HEAT FLUX IS SMALL 
             ENOUGH TO BE TREATED AS ZERO. IF NOT, PLEASE USE THE SOLUTION 
             CONTROLS TO RESET THE CRITERION FOR ZERO HEAT FLUX.

 ITERATION SUMMARY FOR THE INCREMENT:   1 TOTAL ITERATIONS, OF WHICH
   0 ARE SEVERE DISCONTINUITY ITERATIONS AND  1 ARE EQUILIBRIUM ITERATIONS.

 TIME INCREMENT COMPLETED  1.000E+04,  FRACTION OF STEP COMPLETED  1.000E-03
 STEP TIME COMPLETED       1.000E+04,  TOTAL TIME COMPLETED        1.000E+04


  INCREMENT     2 STARTS. ATTEMPT NUMBER  1, TIME INCREMENT  1.000E+04
 
	UNSYMMETRIC NEW DIRECT SPARSE SOLVER RUNNING ON
 	1 HOST x 1 MPI RANK PER HOST x 8 THREADS PER RANK
        NUMBER OF EQUATIONS:  131150
        NUMBER OF RHS:        1
        NUMBER OF FLOPS:      2.469e+11
        SOLVER ELAPSED TIME:  1.4s

               CONVERGENCE CHECKS FOR EQUILIBRIUM ITERATION     1


 AVERAGE FORCE                      1.724E-05   TIME AVG. FORCE       1.073E-05
 LARGEST SCALED RESIDUAL FORCE      5.619E-17   AT NODE      22121   DOF  2
   INSTANCE: PLATE-1                                                                         
  CORRESPONDING RESIDUAL FORCE      5.619E-17
 LARGEST INCREMENT OF DISP.         1.064E-08   AT NODE        960   DOF  2
   INSTANCE: PLATE-1                                                                         
 LARGEST CORRECTION TO DISP.        3.109E-19   AT NODE        960   DOF  3
   INSTANCE: PLATE-1                                                                         
          THE FORCE     EQUILIBRIUM RESPONSE WAS LINEAR IN THIS INCREMENT

 AVERAGE HEAT FLUX                  7.082E-05   TIME AVG. HEAT FLUX   7.082E-05
 LARGEST RESIDUAL HEAT FLUX         1.475E-10   AT NODE        958   DOF 12
   INSTANCE: PLATE-1                                                                         
 LARGEST INCREMENT OF TEMP.         2.966E-02   AT NODE        958   DOF 11
   INSTANCE: PLATE-1                                                                         
 LARGEST CORRECTION TO TEMP.        2.966E-02   AT NODE        958   DOF 11
   INSTANCE: PLATE-1                                                                         
 ESTIMATE OF TEMP.    CORRECTION    1.351E-11
 HEAT FLUX EQUILIB. ACCEPTED BASED ON SMALL RESIDUAL AND ESTIMATED CORRECTION

 ITERATION SUMMARY FOR THE INCREMENT:   1 TOTAL ITERATIONS, OF WHICH
   0 ARE SEVERE DISCONTINUITY ITERATIONS AND  1 ARE EQUILIBRIUM ITERATIONS.

 TIME INCREMENT COMPLETED  1.000E+04,  FRACTION OF STEP COMPLETED  2.000E-03
 STEP TIME COMPLETED       2.000E+04,  TOTAL TIME COMPLETED        2.000E+04


  INCREMENT     3 STARTS. ATTEMPT NUMBER  1, TIME INCREMENT  1.000E+04
 
	UNSYMMETRIC NEW DIRECT SPARSE SOLVER RUNNING ON
 	1 HOST x 1 MPI RANK PER HOST x 8 THREADS PER RANK
        NUMBER OF EQUATIONS:  131150
        NUMBER OF RHS:        1
        NUMBER OF FLOPS:      2.469e+11
        SOLVER ELAPSED TIME:  1.3s

               CONVERGENCE CHECKS FOR EQUILIBRIUM ITERATION     1


 AVERAGE FORCE                      2.586E-05   TIME AVG. FORCE       1.578E-05
 LARGEST SCALED RESIDUAL FORCE      6.646E-17   AT NODE       1671   DOF  2
   INSTANCE: PLATE-1                                                                         
  CORRESPONDING RESIDUAL FORCE      6.646E-17
 LARGEST INCREMENT OF DISP.         1.064E-08   AT NODE        960   DOF  2
   INSTANCE: PLATE-1                                                                         
 LARGEST CORRECTION TO DISP.       -1.217E-14   AT NODE       3388   DOF  2
   INSTANCE: PLATE-1                                                                         
          THE FORCE     EQUILIBRIUM RESPONSE WAS LINEAR IN THIS INCREMENT

 AVERAGE HEAT FLUX                  2.837E-04   TIME AVG. HEAT FLUX   1.772E-04
 LARGEST RESIDUAL HEAT FLUX         3.394E-12   AT NODE        958   DOF 12
   INSTANCE: PLATE-1                                                                         
 LARGEST INCREMENT OF TEMP.         2.983E-02   AT NODE        958   DOF 11
   INSTANCE: PLATE-1                                                                         
 LARGEST CORRECTION TO TEMP.        1.718E-04   AT NODE        958   DOF 11
   INSTANCE: PLATE-1                                                                         
          THE HEAT FLUX EQUILIBRIUM EQUATIONS HAVE CONVERGED

 ITERATION SUMMARY FOR THE INCREMENT:   1 TOTAL ITERATIONS, OF WHICH
   0 ARE SEVERE DISCONTINUITY ITERATIONS AND  1 ARE EQUILIBRIUM ITERATIONS.

 TIME INCREMENT COMPLETED  1.000E+04,  FRACTION OF STEP COMPLETED  3.000E-03
 STEP TIME COMPLETED       3.000E+04,  TOTAL TIME COMPLETED        3.000E+04


  INCREMENT     4 STARTS. ATTEMPT NUMBER  1, TIME INCREMENT  1.000E+04
 
	UNSYMMETRIC NEW DIRECT SPARSE SOLVER RUNNING ON
 	1 HOST x 1 MPI RANK PER HOST x 8 THREADS PER RANK
        NUMBER OF EQUATIONS:  131150
        NUMBER OF RHS:        1
        NUMBER OF FLOPS:      2.469e+11
        SOLVER ELAPSED TIME:  2.0s

               CONVERGENCE CHECKS FOR EQUILIBRIUM ITERATION     1


 AVERAGE FORCE                      3.448E-05   TIME AVG. FORCE       2.045E-05
 LARGEST SCALED RESIDUAL FORCE      5.811E-17   AT NODE       1623   DOF  2
   INSTANCE: PLATE-1                                                                         
  CORRESPONDING RESIDUAL FORCE      5.811E-17
 LARGEST INCREMENT OF DISP.         1.064E-08   AT NODE        960   DOF  2
   INSTANCE: PLATE-1                                                                         
 LARGEST CORRECTION TO DISP.       -4.060E-14   AT NODE       3388   DOF  2
   INSTANCE: PLATE-1                                                                         
          THE FORCE     EQUILIBRIUM RESPONSE WAS LINEAR IN THIS INCREMENT

 AVERAGE HEAT FLUX                  4.256E-04   TIME AVG. HEAT FLUX   2.600E-04
 LARGEST RESIDUAL HEAT FLUX         7.577E-12   AT NODE        958   DOF 12
   INSTANCE: PLATE-1                                                                         
 LARGEST INCREMENT OF TEMP.         3.000E-02   AT NODE        958   DOF 11
   INSTANCE: PLATE-1                                                                         
 LARGEST CORRECTION TO TEMP.        1.717E-04   AT NODE        958   DOF 11
   INSTANCE: PLATE-1                                                                         
          THE HEAT FLUX EQUILIBRIUM EQUATIONS HAVE CONVERGED

 ITERATION SUMMARY FOR THE INCREMENT:   1 TOTAL ITERATIONS, OF WHICH
   0 ARE SEVERE DISCONTINUITY ITERATIONS AND  1 ARE EQUILIBRIUM ITERATIONS.

 TIME INCREMENT COMPLETED  1.000E+04,  FRACTION OF STEP COMPLETED  4.000E-03
 STEP TIME COMPLETED       4.000E+04,  TOTAL TIME COMPLETED        4.000E+04


  INCREMENT     5 STARTS. ATTEMPT NUMBER  1, TIME INCREMENT  1.000E+04
 
	UNSYMMETRIC NEW DIRECT SPARSE SOLVER RUNNING ON
 	1 HOST x 1 MPI RANK PER HOST x 8 THREADS PER RANK
        NUMBER OF EQUATIONS:  131150
        NUMBER OF RHS:        1
        NUMBER OF FLOPS:      2.469e+11
        SOLVER ELAPSED TIME:  1.4s

               CONVERGENCE CHECKS FOR EQUILIBRIUM ITERATION     1


 AVERAGE FORCE                      4.311E-05   TIME AVG. FORCE       2.498E-05
 LARGEST SCALED RESIDUAL FORCE      7.185E-17   AT NODE       1193   DOF  2
   INSTANCE: PLATE-1                                                                         
  CORRESPONDING RESIDUAL FORCE      7.185E-17
 LARGEST INCREMENT OF DISP.         1.064E-08   AT NODE        960   DOF  2
   INSTANCE: PLATE-1                                                                         
 LARGEST CORRECTION TO DISP.       -6.498E-14   AT NODE       3388   DOF  2
   INSTANCE: PLATE-1                                                                         
          THE FORCE     EQUILIBRIUM RESPONSE WAS LINEAR IN THIS INCREMENT

 AVERAGE HEAT FLUX                  5.666E-04   TIME AVG. HEAT FLUX   3.367E-04
 LARGEST RESIDUAL HEAT FLUX         1.339E-11   AT NODE        958   DOF 12
   INSTANCE: PLATE-1                                                                         
 LARGEST INCREMENT OF TEMP.         3.017E-02   AT NODE        958   DOF 11
   INSTANCE: PLATE-1                                                                         
 LARGEST CORRECTION TO TEMP.        1.721E-04   AT NODE        958   DOF 11
   INSTANCE: PLATE-1                                                                         
          THE HEAT FLUX EQUILIBRIUM EQUATIONS HAVE CONVERGED

 ITERATION SUMMARY FOR THE INCREMENT:   1 TOTAL ITERATIONS, OF WHICH
   0 ARE SEVERE DISCONTINUITY ITERATIONS AND  1 ARE EQUILIBRIUM ITERATIONS.

 TIME INCREMENT COMPLETED  1.000E+04,  FRACTION OF STEP COMPLETED  5.000E-03
 STEP TIME COMPLETED       5.000E+04,  TOTAL TIME COMPLETED        5.000E+04


  INCREMENT     6 STARTS. ATTEMPT NUMBER  1, TIME INCREMENT  1.000E+04
 
	UNSYMMETRIC NEW DIRECT SPARSE SOLVER RUNNING ON
 	1 HOST x 1 MPI RANK PER HOST x 8 THREADS PER RANK
        NUMBER OF EQUATIONS:  131150
        NUMBER OF RHS:        1
        NUMBER OF FLOPS:      2.469e+11
        SOLVER ELAPSED TIME:  1.3s

               CONVERGENCE CHECKS FOR EQUILIBRIUM ITERATION     1


 AVERAGE FORCE                      5.173E-05   TIME AVG. FORCE       2.944E-05
 LARGEST SCALED RESIDUAL FORCE      7.302E-17   AT NODE       1624   DOF  2
   INSTANCE: PLATE-1                                                                         
  CORRESPONDING RESIDUAL FORCE      7.302E-17
 LARGEST INCREMENT OF DISP.         1.064E-08   AT NODE        960   DOF  2
   INSTANCE: PLATE-1                                                                         
 LARGEST CORRECTION TO DISP.       -8.940E-14   AT NODE       3388   DOF  2
   INSTANCE: PLATE-1                                                                         
          THE FORCE     EQUILIBRIUM RESPONSE WAS LINEAR IN THIS INCREMENT

 AVERAGE HEAT FLUX                  7.019E-04   TIME AVG. HEAT FLUX   4.097E-04
 LARGEST RESIDUAL HEAT FLUX         2.079E-11   AT NODE        958   DOF 12
   INSTANCE: PLATE-1                                                                         
 LARGEST INCREMENT OF TEMP.         3.035E-02   AT NODE        958   DOF 11
   INSTANCE: PLATE-1                                                                         
 LARGEST CORRECTION TO TEMP.        1.723E-04   AT NODE        958   DOF 11
   INSTANCE: PLATE-1                                                                         
          THE HEAT FLUX EQUILIBRIUM EQUATIONS HAVE CONVERGED

 ITERATION SUMMARY FOR THE INCREMENT:   1 TOTAL ITERATIONS, OF WHICH
   0 ARE SEVERE DISCONTINUITY ITERATIONS AND  1 ARE EQUILIBRIUM ITERATIONS.

 TIME INCREMENT COMPLETED  1.000E+04,  FRACTION OF STEP COMPLETED  6.000E-03
 STEP TIME COMPLETED       6.000E+04,  TOTAL TIME COMPLETED        6.000E+04


  INCREMENT     7 STARTS. ATTEMPT NUMBER  1, TIME INCREMENT  1.000E+04
 
	UNSYMMETRIC NEW DIRECT SPARSE SOLVER RUNNING ON
 	1 HOST x 1 MPI RANK PER HOST x 8 THREADS PER RANK
        NUMBER OF EQUATIONS:  131150
        NUMBER OF RHS:        1
        NUMBER OF FLOPS:      2.469e+11
        SOLVER ELAPSED TIME:  1.3s

               CONVERGENCE CHECKS FOR EQUILIBRIUM ITERATION     1


 AVERAGE FORCE                      6.034E-05   TIME AVG. FORCE       3.386E-05
 LARGEST SCALED RESIDUAL FORCE      5.578E-17   AT NODE       1104   DOF  2
   INSTANCE: PLATE-1                                                                         
  CORRESPONDING RESIDUAL FORCE      5.578E-17
 LARGEST INCREMENT OF DISP.         1.064E-08   AT NODE        960   DOF  2
   INSTANCE: PLATE-1                                                                         
 LARGEST CORRECTION TO DISP.       -1.138E-13   AT NODE       3388   DOF  2
   INSTANCE: PLATE-1                                                                         
          THE FORCE     EQUILIBRIUM RESPONSE WAS LINEAR IN THIS INCREMENT

 AVERAGE HEAT FLUX                  8.321E-04   TIME AVG. HEAT FLUX   4.801E-04
 LARGEST RESIDUAL HEAT FLUX         2.975E-11   AT NODE        958   DOF 12
   INSTANCE: PLATE-1                                                                         
 LARGEST INCREMENT OF TEMP.         3.052E-02   AT NODE        958   DOF 11
   INSTANCE: PLATE-1                                                                         
 LARGEST CORRECTION TO TEMP.        1.725E-04   AT NODE        958   DOF 11
   INSTANCE: PLATE-1                                                                         
          THE HEAT FLUX EQUILIBRIUM EQUATIONS HAVE CONVERGED

 ITERATION SUMMARY FOR THE INCREMENT:   1 TOTAL ITERATIONS, OF WHICH
   0 ARE SEVERE DISCONTINUITY ITERATIONS AND  1 ARE EQUILIBRIUM ITERATIONS.

 TIME INCREMENT COMPLETED  1.000E+04,  FRACTION OF STEP COMPLETED  7.000E-03
 STEP TIME COMPLETED       7.000E+04,  TOTAL TIME COMPLETED        7.000E+04


  INCREMENT     8 STARTS. ATTEMPT NUMBER  1, TIME INCREMENT  1.000E+04
 
	UNSYMMETRIC NEW DIRECT SPARSE SOLVER RUNNING ON
 	1 HOST x 1 MPI RANK PER HOST x 8 THREADS PER RANK
        NUMBER OF EQUATIONS:  131150
        NUMBER OF RHS:        1
        NUMBER OF FLOPS:      2.469e+11
        SOLVER ELAPSED TIME:  1.3s

               CONVERGENCE CHECKS FOR EQUILIBRIUM ITERATION     1


 AVERAGE FORCE                      6.896E-05   TIME AVG. FORCE       3.824E-05
 LARGEST SCALED RESIDUAL FORCE      6.006E-17   AT NODE      22121   DOF  2
   INSTANCE: PLATE-1                                                                         
  CORRESPONDING RESIDUAL FORCE      6.006E-17
 LARGEST INCREMENT OF DISP.         1.064E-08   AT NODE        960   DOF  2
   INSTANCE: PLATE-1                                                                         
 LARGEST CORRECTION TO DISP.       -1.383E-13   AT NODE       3388   DOF  2
   INSTANCE: PLATE-1                                                                         
          THE FORCE     EQUILIBRIUM RESPONSE WAS LINEAR IN THIS INCREMENT

 AVERAGE HEAT FLUX                  9.606E-04   TIME AVG. HEAT FLUX   5.487E-04
 LARGEST RESIDUAL HEAT FLUX         4.023E-11   AT NODE        958   DOF 12
   INSTANCE: PLATE-1                                                                         
 LARGEST INCREMENT OF TEMP.         3.069E-02   AT NODE        958   DOF 11
   INSTANCE: PLATE-1                                                                         
 LARGEST CORRECTION TO TEMP.        1.727E-04   AT NODE        958   DOF 11
   INSTANCE: PLATE-1                                                                         
          THE HEAT FLUX EQUILIBRIUM EQUATIONS HAVE CONVERGED

 ITERATION SUMMARY FOR THE INCREMENT:   1 TOTAL ITERATIONS, OF WHICH
   0 ARE SEVERE DISCONTINUITY ITERATIONS AND  1 ARE EQUILIBRIUM ITERATIONS.

 TIME INCREMENT COMPLETED  1.000E+04,  FRACTION OF STEP COMPLETED  8.000E-03
 STEP TIME COMPLETED       8.000E+04,  TOTAL TIME COMPLETED        8.000E+04


  INCREMENT     9 STARTS. ATTEMPT NUMBER  1, TIME INCREMENT  1.000E+04
 
	UNSYMMETRIC NEW DIRECT SPARSE SOLVER RUNNING ON
 	1 HOST x 1 MPI RANK PER HOST x 8 THREADS PER RANK
        NUMBER OF EQUATIONS:  131150
        NUMBER OF RHS:        1
        NUMBER OF FLOPS:      2.469e+11
        SOLVER ELAPSED TIME:  1.3s

               CONVERGENCE CHECKS FOR EQUILIBRIUM ITERATION     1


 AVERAGE FORCE                      7.758E-05   TIME AVG. FORCE       4.261E-05
 LARGEST SCALED RESIDUAL FORCE      5.215E-17   AT NODE      23974   DOF  2
   INSTANCE: PLATE-1                                                                         
  CORRESPONDING RESIDUAL FORCE      5.215E-17
 LARGEST INCREMENT OF DISP.         1.064E-08   AT NODE        960   DOF  2
   INSTANCE: PLATE-1                                                                         
 LARGEST CORRECTION TO DISP.       -1.628E-13   AT NODE       3388   DOF  2
   INSTANCE: PLATE-1                                                                         
          THE FORCE     EQUILIBRIUM RESPONSE WAS LINEAR IN THIS INCREMENT

 AVERAGE HEAT FLUX                  1.087E-03   TIME AVG. HEAT FLUX   6.160E-04
 LARGEST RESIDUAL HEAT FLUX         5.219E-11   AT NODE        958   DOF 12
   INSTANCE: PLATE-1                                                                         
 LARGEST INCREMENT OF TEMP.         3.086E-02   AT NODE        958   DOF 11
   INSTANCE: PLATE-1                                                                         
 LARGEST CORRECTION TO TEMP.        1.729E-04   AT NODE        958   DOF 11
   INSTANCE: PLATE-1                                                                         
          THE HEAT FLUX EQUILIBRIUM EQUATIONS HAVE CONVERGED

 ITERATION SUMMARY FOR THE INCREMENT:   1 TOTAL ITERATIONS, OF WHICH
   0 ARE SEVERE DISCONTINUITY ITERATIONS AND  1 ARE EQUILIBRIUM ITERATIONS.

 TIME INCREMENT COMPLETED  1.000E+04,  FRACTION OF STEP COMPLETED  9.000E-03
 STEP TIME COMPLETED       9.000E+04,  TOTAL TIME COMPLETED        9.000E+04


  INCREMENT    10 STARTS. ATTEMPT NUMBER  1, TIME INCREMENT  1.000E+04
 
	UNSYMMETRIC NEW DIRECT SPARSE SOLVER RUNNING ON
 	1 HOST x 1 MPI RANK PER HOST x 8 THREADS PER RANK
        NUMBER OF EQUATIONS:  131150
        NUMBER OF RHS:        1
        NUMBER OF FLOPS:      2.469e+11
        SOLVER ELAPSED TIME:  1.3s

               CONVERGENCE CHECKS FOR EQUILIBRIUM ITERATION     1


 AVERAGE FORCE                      8.620E-05   TIME AVG. FORCE       4.697E-05
 LARGEST SCALED RESIDUAL FORCE     -5.071E-17   AT NODE        589   DOF  2
   INSTANCE: PLATE-1                                                                         
  CORRESPONDING RESIDUAL FORCE     -5.071E-17
 LARGEST INCREMENT OF DISP.         1.064E-08   AT NODE        960   DOF  2
   INSTANCE: PLATE-1                                                                         
 LARGEST CORRECTION TO DISP.       -1.874E-13   AT NODE       3388   DOF  2
   INSTANCE: PLATE-1                                                                         
          THE FORCE     EQUILIBRIUM RESPONSE WAS LINEAR IN THIS INCREMENT

 AVERAGE HEAT FLUX                  1.211E-03   TIME AVG. HEAT FLUX   6.821E-04
 LARGEST RESIDUAL HEAT FLUX         6.561E-11   AT NODE        958   DOF 12
   INSTANCE: PLATE-1                                                                         
 LARGEST INCREMENT OF TEMP.         3.104E-02   AT NODE        958   DOF 11
   INSTANCE: PLATE-1                                                                         
 LARGEST CORRECTION TO TEMP.        1.730E-04   AT NODE        958   DOF 11
   INSTANCE: PLATE-1                                                                         
          THE HEAT FLUX EQUILIBRIUM EQUATIONS HAVE CONVERGED

 ITERATION SUMMARY FOR THE INCREMENT:   1 TOTAL ITERATIONS, OF WHICH
   0 ARE SEVERE DISCONTINUITY ITERATIONS AND  1 ARE EQUILIBRIUM ITERATIONS.

 TIME INCREMENT COMPLETED  1.000E+04,  FRACTION OF STEP COMPLETED  1.000E-02
 STEP TIME COMPLETED       1.000E+05,  TOTAL TIME COMPLETED        1.000E+05


  INCREMENT    11 STARTS. ATTEMPT NUMBER  1, TIME INCREMENT  1.000E+04
 
	UNSYMMETRIC NEW DIRECT SPARSE SOLVER RUNNING ON
 	1 HOST x 1 MPI RANK PER HOST x 8 THREADS PER RANK
        NUMBER OF EQUATIONS:  131150
        NUMBER OF RHS:        1
        NUMBER OF FLOPS:      2.469e+11
        SOLVER ELAPSED TIME:  1.3s

               CONVERGENCE CHECKS FOR EQUILIBRIUM ITERATION     1


 AVERAGE FORCE                      9.481E-05   TIME AVG. FORCE       5.132E-05
 LARGEST SCALED RESIDUAL FORCE     -5.985E-17   AT NODE      21917   DOF  2
   INSTANCE: PLATE-1                                                                         
  CORRESPONDING RESIDUAL FORCE     -5.985E-17
 LARGEST INCREMENT OF DISP.         1.064E-08   AT NODE        960   DOF  2
   INSTANCE: PLATE-1                                                                         
 LARGEST CORRECTION TO DISP.       -2.119E-13   AT NODE       3388   DOF  2
   INSTANCE: PLATE-1                                                                         
          THE FORCE     EQUILIBRIUM RESPONSE WAS LINEAR IN THIS INCREMENT

 AVERAGE HEAT FLUX                  1.333E-03   TIME AVG. HEAT FLUX   7.472E-04
 LARGEST RESIDUAL HEAT FLUX         8.045E-11   AT NODE        958   DOF 12
   INSTANCE: PLATE-1                                                                         
 LARGEST INCREMENT OF TEMP.         3.121E-02   AT NODE        958   DOF 11
   INSTANCE: PLATE-1                                                                         
 LARGEST CORRECTION TO TEMP.        1.732E-04   AT NODE        958   DOF 11
   INSTANCE: PLATE-1                                                                         
          THE HEAT FLUX EQUILIBRIUM EQUATIONS HAVE CONVERGED

 ITERATION SUMMARY FOR THE INCREMENT:   1 TOTAL ITERATIONS, OF WHICH
   0 ARE SEVERE DISCONTINUITY ITERATIONS AND  1 ARE EQUILIBRIUM ITERATIONS.

 TIME INCREMENT COMPLETED  1.000E+04,  FRACTION OF STEP COMPLETED  1.100E-02
 STEP TIME COMPLETED       1.100E+05,  TOTAL TIME COMPLETED        1.100E+05


  INCREMENT    12 STARTS. ATTEMPT NUMBER  1, TIME INCREMENT  1.000E+04
 
	UNSYMMETRIC NEW DIRECT SPARSE SOLVER RUNNING ON
 	1 HOST x 1 MPI RANK PER HOST x 8 THREADS PER RANK
        NUMBER OF EQUATIONS:  131150
        NUMBER OF RHS:        1
        NUMBER OF FLOPS:      2.469e+11
        SOLVER ELAPSED TIME:  1.3s

               CONVERGENCE CHECKS FOR EQUILIBRIUM ITERATION     1


 AVERAGE FORCE                      1.034E-04   TIME AVG. FORCE       5.566E-05
 LARGEST SCALED RESIDUAL FORCE     -6.703E-17   AT NODE       1629   DOF  2
   INSTANCE: PLATE-1                                                                         
  CORRESPONDING RESIDUAL FORCE     -6.703E-17
 LARGEST INCREMENT OF DISP.         1.064E-08   AT NODE        960   DOF  2
   INSTANCE: PLATE-1                                                                         
 LARGEST CORRECTION TO DISP.       -2.365E-13   AT NODE       3388   DOF  2
   INSTANCE: PLATE-1                                                                         
          THE FORCE     EQUILIBRIUM RESPONSE WAS LINEAR IN THIS INCREMENT

 AVERAGE HEAT FLUX                  1.453E-03   TIME AVG. HEAT FLUX   8.114E-04
 LARGEST RESIDUAL HEAT FLUX         9.667E-11   AT NODE        958   DOF 12
   INSTANCE: PLATE-1                                                                         
 LARGEST INCREMENT OF TEMP.         3.138E-02   AT NODE        958   DOF 11
   INSTANCE: PLATE-1                                                                         
 LARGEST CORRECTION TO TEMP.        1.733E-04   AT NODE        958   DOF 11
   INSTANCE: PLATE-1                                                                         
          THE HEAT FLUX EQUILIBRIUM EQUATIONS HAVE CONVERGED

 ITERATION SUMMARY FOR THE INCREMENT:   1 TOTAL ITERATIONS, OF WHICH
   0 ARE SEVERE DISCONTINUITY ITERATIONS AND  1 ARE EQUILIBRIUM ITERATIONS.

 TIME INCREMENT COMPLETED  1.000E+04,  FRACTION OF STEP COMPLETED  1.200E-02
 STEP TIME COMPLETED       1.200E+05,  TOTAL TIME COMPLETED        1.200E+05


  INCREMENT    13 STARTS. ATTEMPT NUMBER  1, TIME INCREMENT  1.000E+04
 
	UNSYMMETRIC NEW DIRECT SPARSE SOLVER RUNNING ON
 	1 HOST x 1 MPI RANK PER HOST x 8 THREADS PER RANK
        NUMBER OF EQUATIONS:  131150
        NUMBER OF RHS:        1
        NUMBER OF FLOPS:      2.469e+11
        SOLVER ELAPSED TIME:  1.3s

               CONVERGENCE CHECKS FOR EQUILIBRIUM ITERATION     1


 AVERAGE FORCE                      1.120E-04   TIME AVG. FORCE       6.000E-05
 LARGEST SCALED RESIDUAL FORCE     -6.609E-17   AT NODE        671   DOF  2
   INSTANCE: PLATE-1                                                                         
  CORRESPONDING RESIDUAL FORCE     -6.609E-17
 LARGEST INCREMENT OF DISP.         1.064E-08   AT NODE        960   DOF  2
   INSTANCE: PLATE-1                                                                         
 LARGEST CORRECTION TO DISP.       -2.612E-13   AT NODE       3388   DOF  2
   INSTANCE: PLATE-1                                                                         
          THE FORCE     EQUILIBRIUM RESPONSE WAS LINEAR IN THIS INCREMENT

 AVERAGE HEAT FLUX                  1.571E-03   TIME AVG. HEAT FLUX   8.747E-04
 LARGEST RESIDUAL HEAT FLUX         1.142E-10   AT NODE        958   DOF 12
   INSTANCE: PLATE-1                                                                         
 LARGEST INCREMENT OF TEMP.         3.156E-02   AT NODE        958   DOF 11
   INSTANCE: PLATE-1                                                                         
 LARGEST CORRECTION TO TEMP.        1.734E-04   AT NODE        958   DOF 11
   INSTANCE: PLATE-1                                                                         
          THE HEAT FLUX EQUILIBRIUM EQUATIONS HAVE CONVERGED

 ITERATION SUMMARY FOR THE INCREMENT:   1 TOTAL ITERATIONS, OF WHICH
   0 ARE SEVERE DISCONTINUITY ITERATIONS AND  1 ARE EQUILIBRIUM ITERATIONS.

 TIME INCREMENT COMPLETED  1.000E+04,  FRACTION OF STEP COMPLETED  1.300E-02
 STEP TIME COMPLETED       1.300E+05,  TOTAL TIME COMPLETED        1.300E+05


  INCREMENT    14 STARTS. ATTEMPT NUMBER  1, TIME INCREMENT  1.000E+04
 
	UNSYMMETRIC NEW DIRECT SPARSE SOLVER RUNNING ON
 	1 HOST x 1 MPI RANK PER HOST x 8 THREADS PER RANK
        NUMBER OF EQUATIONS:  131150
        NUMBER OF RHS:        1
        NUMBER OF FLOPS:      2.469e+11
        SOLVER ELAPSED TIME:  1.3s

               CONVERGENCE CHECKS FOR EQUILIBRIUM ITERATION     1


 AVERAGE FORCE                      1.206E-04   TIME AVG. FORCE       6.433E-05
 LARGEST SCALED RESIDUAL FORCE     -9.385E-17   AT NODE       1193   DOF  2
   INSTANCE: PLATE-1                                                                         
  CORRESPONDING RESIDUAL FORCE     -9.385E-17
 LARGEST INCREMENT OF DISP.         1.064E-08   AT NODE        960   DOF  2
   INSTANCE: PLATE-1                                                                         
 LARGEST CORRECTION TO DISP.       -2.859E-13   AT NODE       3388   DOF  2
   INSTANCE: PLATE-1                                                                         
          THE FORCE     EQUILIBRIUM RESPONSE WAS LINEAR IN THIS INCREMENT

 AVERAGE HEAT FLUX                  1.688E-03   TIME AVG. HEAT FLUX   9.373E-04
 LARGEST RESIDUAL HEAT FLUX         1.331E-10   AT NODE        958   DOF 12
   INSTANCE: PLATE-1                                                                         
 LARGEST INCREMENT OF TEMP.         3.173E-02   AT NODE        958   DOF 11
   INSTANCE: PLATE-1                                                                         
 LARGEST CORRECTION TO TEMP.        1.735E-04   AT NODE        958   DOF 11
   INSTANCE: PLATE-1                                                                         
          THE HEAT FLUX EQUILIBRIUM EQUATIONS HAVE CONVERGED

 ITERATION SUMMARY FOR THE INCREMENT:   1 TOTAL ITERATIONS, OF WHICH
   0 ARE SEVERE DISCONTINUITY ITERATIONS AND  1 ARE EQUILIBRIUM ITERATIONS.

 TIME INCREMENT COMPLETED  1.000E+04,  FRACTION OF STEP COMPLETED  1.400E-02
 STEP TIME COMPLETED       1.400E+05,  TOTAL TIME COMPLETED        1.400E+05


  INCREMENT    15 STARTS. ATTEMPT NUMBER  1, TIME INCREMENT  1.000E+04
 
	UNSYMMETRIC NEW DIRECT SPARSE SOLVER RUNNING ON
 	1 HOST x 1 MPI RANK PER HOST x 8 THREADS PER RANK
        NUMBER OF EQUATIONS:  131150
        NUMBER OF RHS:        1
        NUMBER OF FLOPS:      2.469e+11
        SOLVER ELAPSED TIME:  1.3s

               CONVERGENCE CHECKS FOR EQUILIBRIUM ITERATION     1


 AVERAGE FORCE                      1.293E-04   TIME AVG. FORCE       6.866E-05
 LARGEST SCALED RESIDUAL FORCE      6.353E-17   AT NODE       1618   DOF  2
   INSTANCE: PLATE-1                                                                         
  CORRESPONDING RESIDUAL FORCE      6.353E-17
 LARGEST INCREMENT OF DISP.         1.064E-08   AT NODE        960   DOF  2
   INSTANCE: PLATE-1                                                                         
 LARGEST CORRECTION TO DISP.       -3.106E-13   AT NODE       3388   DOF  2
   INSTANCE: PLATE-1                                                                         
          THE FORCE     EQUILIBRIUM RESPONSE WAS LINEAR IN THIS INCREMENT

 AVERAGE HEAT FLUX                  1.803E-03   TIME AVG. HEAT FLUX   9.991E-04
 LARGEST RESIDUAL HEAT FLUX         1.532E-10   AT NODE        958   DOF 12
   INSTANCE: PLATE-1                                                                         
 LARGEST INCREMENT OF TEMP.         3.190E-02   AT NODE        958   DOF 11
   INSTANCE: PLATE-1                                                                         
 LARGEST CORRECTION TO TEMP.        1.736E-04   AT NODE        958   DOF 11
   INSTANCE: PLATE-1                                                                         
          THE HEAT FLUX EQUILIBRIUM EQUATIONS HAVE CONVERGED

 ITERATION SUMMARY FOR THE INCREMENT:   1 TOTAL ITERATIONS, OF WHICH
   0 ARE SEVERE DISCONTINUITY ITERATIONS AND  1 ARE EQUILIBRIUM ITERATIONS.

 TIME INCREMENT COMPLETED  1.000E+04,  FRACTION OF STEP COMPLETED  1.500E-02
 STEP TIME COMPLETED       1.500E+05,  TOTAL TIME COMPLETED        1.500E+05


  INCREMENT    16 STARTS. ATTEMPT NUMBER  1, TIME INCREMENT  1.000E+04
 
	UNSYMMETRIC NEW DIRECT SPARSE SOLVER RUNNING ON
 	1 HOST x 1 MPI RANK PER HOST x 8 THREADS PER RANK
        NUMBER OF EQUATIONS:  131150
        NUMBER OF RHS:        1
        NUMBER OF FLOPS:      2.469e+11
        SOLVER ELAPSED TIME:  1.3s

               CONVERGENCE CHECKS FOR EQUILIBRIUM ITERATION     1


 AVERAGE FORCE                      1.379E-04   TIME AVG. FORCE       7.298E-05
 LARGEST SCALED RESIDUAL FORCE      7.031E-17   AT NODE        629   DOF  2
   INSTANCE: PLATE-1                                                                         
  CORRESPONDING RESIDUAL FORCE      7.031E-17
 LARGEST INCREMENT OF DISP.         1.064E-08   AT NODE        960   DOF  2
   INSTANCE: PLATE-1                                                                         
 LARGEST CORRECTION TO DISP.       -3.354E-13   AT NODE       3388   DOF  2
   INSTANCE: PLATE-1                                                                         
          THE FORCE     EQUILIBRIUM RESPONSE WAS LINEAR IN THIS INCREMENT

 AVERAGE HEAT FLUX                  1.918E-03   TIME AVG. HEAT FLUX   1.060E-03
 LARGEST RESIDUAL HEAT FLUX         1.746E-10   AT NODE        958   DOF 12
   INSTANCE: PLATE-1                                                                         
 LARGEST INCREMENT OF TEMP.         3.208E-02   AT NODE        958   DOF 11
   INSTANCE: PLATE-1                                                                         
 LARGEST CORRECTION TO TEMP.        1.737E-04   AT NODE        958   DOF 11
   INSTANCE: PLATE-1                                                                         
          THE HEAT FLUX EQUILIBRIUM EQUATIONS HAVE CONVERGED

 ITERATION SUMMARY FOR THE INCREMENT:   1 TOTAL ITERATIONS, OF WHICH
   0 ARE SEVERE DISCONTINUITY ITERATIONS AND  1 ARE EQUILIBRIUM ITERATIONS.

 TIME INCREMENT COMPLETED  1.000E+04,  FRACTION OF STEP COMPLETED  1.600E-02
 STEP TIME COMPLETED       1.600E+05,  TOTAL TIME COMPLETED        1.600E+05


  INCREMENT    17 STARTS. ATTEMPT NUMBER  1, TIME INCREMENT  1.000E+04
 
	UNSYMMETRIC NEW DIRECT SPARSE SOLVER RUNNING ON
 	1 HOST x 1 MPI RANK PER HOST x 8 THREADS PER RANK
        NUMBER OF EQUATIONS:  131150
        NUMBER OF RHS:        1
        NUMBER OF FLOPS:      2.469e+11
        SOLVER ELAPSED TIME:  1.3s

               CONVERGENCE CHECKS FOR EQUILIBRIUM ITERATION     1


 AVERAGE FORCE                      1.465E-04   TIME AVG. FORCE       7.731E-05
 LARGEST SCALED RESIDUAL FORCE      6.256E-17   AT NODE       1669   DOF  2
   INSTANCE: PLATE-1                                                                         
  CORRESPONDING RESIDUAL FORCE      6.256E-17
 LARGEST INCREMENT OF DISP.         1.064E-08   AT NODE        960   DOF  2
   INSTANCE: PLATE-1                                                                         
 LARGEST CORRECTION TO DISP.       -3.602E-13   AT NODE       3388   DOF  2
   INSTANCE: PLATE-1                                                                         
          THE FORCE     EQUILIBRIUM RESPONSE WAS LINEAR IN THIS INCREMENT

 AVERAGE HEAT FLUX                  2.030E-03   TIME AVG. HEAT FLUX   1.121E-03
 LARGEST RESIDUAL HEAT FLUX         1.972E-10   AT NODE        958   DOF 12
   INSTANCE: PLATE-1                                                                         
 LARGEST INCREMENT OF TEMP.         3.225E-02   AT NODE        958   DOF 11
   INSTANCE: PLATE-1                                                                         
 LARGEST CORRECTION TO TEMP.        1.737E-04   AT NODE        958   DOF 11
   INSTANCE: PLATE-1                                                                         
          THE HEAT FLUX EQUILIBRIUM EQUATIONS HAVE CONVERGED

 ITERATION SUMMARY FOR THE INCREMENT:   1 TOTAL ITERATIONS, OF WHICH
   0 ARE SEVERE DISCONTINUITY ITERATIONS AND  1 ARE EQUILIBRIUM ITERATIONS.

 TIME INCREMENT COMPLETED  1.000E+04,  FRACTION OF STEP COMPLETED  1.700E-02
 STEP TIME COMPLETED       1.700E+05,  TOTAL TIME COMPLETED        1.700E+05


  INCREMENT    18 STARTS. ATTEMPT NUMBER  1, TIME INCREMENT  1.000E+04
 
	UNSYMMETRIC NEW DIRECT SPARSE SOLVER RUNNING ON
 	1 HOST x 1 MPI RANK PER HOST x 8 THREADS PER RANK
        NUMBER OF EQUATIONS:  131150
        NUMBER OF RHS:        1
        NUMBER OF FLOPS:      2.469e+11
        SOLVER ELAPSED TIME:  1.2s

               CONVERGENCE CHECKS FOR EQUILIBRIUM ITERATION     1


 AVERAGE FORCE                      1.551E-04   TIME AVG. FORCE       8.163E-05
 LARGEST SCALED RESIDUAL FORCE      6.780E-17   AT NODE       1627   DOF  2
   INSTANCE: PLATE-1                                                                         
  CORRESPONDING RESIDUAL FORCE      6.780E-17
 LARGEST INCREMENT OF DISP.         1.064E-08   AT NODE        960   DOF  2
   INSTANCE: PLATE-1                                                                         
 LARGEST CORRECTION TO DISP.       -3.851E-13   AT NODE       3388   DOF  2
   INSTANCE: PLATE-1                                                                         
          THE FORCE     EQUILIBRIUM RESPONSE WAS LINEAR IN THIS INCREMENT

 AVERAGE HEAT FLUX                  2.141E-03   TIME AVG. HEAT FLUX   1.181E-03
 LARGEST RESIDUAL HEAT FLUX         2.209E-10   AT NODE        958   DOF 12
   INSTANCE: PLATE-1                                                                         
 LARGEST INCREMENT OF TEMP.         3.243E-02   AT NODE        958   DOF 11
   INSTANCE: PLATE-1                                                                         
 LARGEST CORRECTION TO TEMP.        1.738E-04   AT NODE        958   DOF 11
   INSTANCE: PLATE-1                                                                         
          THE HEAT FLUX EQUILIBRIUM EQUATIONS HAVE CONVERGED

 ITERATION SUMMARY FOR THE INCREMENT:   1 TOTAL ITERATIONS, OF WHICH
   0 ARE SEVERE DISCONTINUITY ITERATIONS AND  1 ARE EQUILIBRIUM ITERATIONS.

 TIME INCREMENT COMPLETED  1.000E+04,  FRACTION OF STEP COMPLETED  1.800E-02
 STEP TIME COMPLETED       1.800E+05,  TOTAL TIME COMPLETED        1.800E+05


  INCREMENT    19 STARTS. ATTEMPT NUMBER  1, TIME INCREMENT  1.000E+04
 
	UNSYMMETRIC NEW DIRECT SPARSE SOLVER RUNNING ON
 	1 HOST x 1 MPI RANK PER HOST x 8 THREADS PER RANK
        NUMBER OF EQUATIONS:  131150
        NUMBER OF RHS:        1
        NUMBER OF FLOPS:      2.469e+11
        SOLVER ELAPSED TIME:  1.3s

               CONVERGENCE CHECKS FOR EQUILIBRIUM ITERATION     1


 AVERAGE FORCE                      1.637E-04   TIME AVG. FORCE       8.594E-05
 LARGEST SCALED RESIDUAL FORCE      4.489E-17   AT NODE       1616   DOF  2
   INSTANCE: PLATE-1                                                                         
  CORRESPONDING RESIDUAL FORCE      4.489E-17
 LARGEST INCREMENT OF DISP.         1.064E-08   AT NODE        960   DOF  2
   INSTANCE: PLATE-1                                                                         
 LARGEST CORRECTION TO DISP.       -4.100E-13   AT NODE       3388   DOF  2
   INSTANCE: PLATE-1                                                                         
          THE FORCE     EQUILIBRIUM RESPONSE WAS LINEAR IN THIS INCREMENT

 AVERAGE HEAT FLUX                  2.251E-03   TIME AVG. HEAT FLUX   1.240E-03
 LARGEST RESIDUAL HEAT FLUX         2.457E-10   AT NODE        958   DOF 12
   INSTANCE: PLATE-1                                                                         
 LARGEST INCREMENT OF TEMP.         3.260E-02   AT NODE        958   DOF 11
   INSTANCE: PLATE-1                                                                         
 LARGEST CORRECTION TO TEMP.        1.738E-04   AT NODE        958   DOF 11
   INSTANCE: PLATE-1                                                                         
          THE HEAT FLUX EQUILIBRIUM EQUATIONS HAVE CONVERGED

 ITERATION SUMMARY FOR THE INCREMENT:   1 TOTAL ITERATIONS, OF WHICH
   0 ARE SEVERE DISCONTINUITY ITERATIONS AND  1 ARE EQUILIBRIUM ITERATIONS.

 TIME INCREMENT COMPLETED  1.000E+04,  FRACTION OF STEP COMPLETED  1.900E-02
 STEP TIME COMPLETED       1.900E+05,  TOTAL TIME COMPLETED        1.900E+05


  INCREMENT    20 STARTS. ATTEMPT NUMBER  1, TIME INCREMENT  1.000E+04
 
	UNSYMMETRIC NEW DIRECT SPARSE SOLVER RUNNING ON
 	1 HOST x 1 MPI RANK PER HOST x 8 THREADS PER RANK
        NUMBER OF EQUATIONS:  131150
        NUMBER OF RHS:        1
        NUMBER OF FLOPS:      2.469e+11
        SOLVER ELAPSED TIME:  1.3s

               CONVERGENCE CHECKS FOR EQUILIBRIUM ITERATION     1


 AVERAGE FORCE                      1.722E-04   TIME AVG. FORCE       9.026E-05
 LARGEST SCALED RESIDUAL FORCE      6.432E-17   AT NODE       1578   DOF  2
   INSTANCE: PLATE-1                                                                         
  CORRESPONDING RESIDUAL FORCE      6.432E-17
 LARGEST INCREMENT OF DISP.         1.064E-08   AT NODE        960   DOF  2
   INSTANCE: PLATE-1                                                                         
 LARGEST CORRECTION TO DISP.       -4.349E-13   AT NODE       3388   DOF  2
   INSTANCE: PLATE-1                                                                         
          THE FORCE     EQUILIBRIUM RESPONSE WAS LINEAR IN THIS INCREMENT

 AVERAGE HEAT FLUX                  2.358E-03   TIME AVG. HEAT FLUX   1.299E-03
 LARGEST RESIDUAL HEAT FLUX         2.716E-10   AT NODE        958   DOF 12
   INSTANCE: PLATE-1                                                                         
 LARGEST INCREMENT OF TEMP.         3.277E-02   AT NODE        958   DOF 11
   INSTANCE: PLATE-1                                                                         
 LARGEST CORRECTION TO TEMP.        1.738E-04   AT NODE        958   DOF 11
   INSTANCE: PLATE-1                                                                         
          THE HEAT FLUX EQUILIBRIUM EQUATIONS HAVE CONVERGED

 ITERATION SUMMARY FOR THE INCREMENT:   1 TOTAL ITERATIONS, OF WHICH
   0 ARE SEVERE DISCONTINUITY ITERATIONS AND  1 ARE EQUILIBRIUM ITERATIONS.

 TIME INCREMENT COMPLETED  1.000E+04,  FRACTION OF STEP COMPLETED  2.000E-02
 STEP TIME COMPLETED       2.000E+05,  TOTAL TIME COMPLETED        2.000E+05


  INCREMENT    21 STARTS. ATTEMPT NUMBER  1, TIME INCREMENT  1.000E+04
 
	UNSYMMETRIC NEW DIRECT SPARSE SOLVER RUNNING ON
 	1 HOST x 1 MPI RANK PER HOST x 8 THREADS PER RANK
        NUMBER OF EQUATIONS:  131150
        NUMBER OF RHS:        1
        NUMBER OF FLOPS:      2.469e+11
        SOLVER ELAPSED TIME:  1.3s

               CONVERGENCE CHECKS FOR EQUILIBRIUM ITERATION     1


 AVERAGE FORCE                      1.808E-04   TIME AVG. FORCE       9.457E-05
 LARGEST SCALED RESIDUAL FORCE     -5.855E-17   AT NODE        588   DOF  2
   INSTANCE: PLATE-1                                                                         
  CORRESPONDING RESIDUAL FORCE     -5.855E-17
 LARGEST INCREMENT OF DISP.         1.064E-08   AT NODE        960   DOF  2
   INSTANCE: PLATE-1                                                                         
 LARGEST CORRECTION TO DISP.       -4.600E-13   AT NODE       3388   DOF  2
   INSTANCE: PLATE-1                                                                         
          THE FORCE     EQUILIBRIUM RESPONSE WAS LINEAR IN THIS INCREMENT

 AVERAGE HEAT FLUX                  2.466E-03   TIME AVG. HEAT FLUX   1.358E-03
 LARGEST RESIDUAL HEAT FLUX         2.986E-10   AT NODE        958   DOF 12
   INSTANCE: PLATE-1                                                                         
 LARGEST INCREMENT OF TEMP.         3.295E-02   AT NODE        958   DOF 11
   INSTANCE: PLATE-1                                                                         
 LARGEST CORRECTION TO TEMP.        1.737E-04   AT NODE        958   DOF 11
   INSTANCE: PLATE-1                                                                         
          THE HEAT FLUX EQUILIBRIUM EQUATIONS HAVE CONVERGED

 ITERATION SUMMARY FOR THE INCREMENT:   1 TOTAL ITERATIONS, OF WHICH
   0 ARE SEVERE DISCONTINUITY ITERATIONS AND  1 ARE EQUILIBRIUM ITERATIONS.

 TIME INCREMENT COMPLETED  1.000E+04,  FRACTION OF STEP COMPLETED  2.100E-02
 STEP TIME COMPLETED       2.100E+05,  TOTAL TIME COMPLETED        2.100E+05


  INCREMENT    22 STARTS. ATTEMPT NUMBER  1, TIME INCREMENT  1.000E+04
 
	UNSYMMETRIC NEW DIRECT SPARSE SOLVER RUNNING ON
 	1 HOST x 1 MPI RANK PER HOST x 8 THREADS PER RANK
        NUMBER OF EQUATIONS:  131150
        NUMBER OF RHS:        1
        NUMBER OF FLOPS:      2.469e+11
        SOLVER ELAPSED TIME:  1.3s

               CONVERGENCE CHECKS FOR EQUILIBRIUM ITERATION     1


 AVERAGE FORCE                      1.894E-04   TIME AVG. FORCE       9.888E-05
 LARGEST SCALED RESIDUAL FORCE     -7.373E-17   AT NODE       1193   DOF  2
   INSTANCE: PLATE-1                                                                         
  CORRESPONDING RESIDUAL FORCE     -7.373E-17
 LARGEST INCREMENT OF DISP.         1.064E-08   AT NODE        960   DOF  2
   INSTANCE: PLATE-1                                                                         
 LARGEST CORRECTION TO DISP.       -4.850E-13   AT NODE       3388   DOF  2
   INSTANCE: PLATE-1                                                                         
          THE FORCE     EQUILIBRIUM RESPONSE WAS LINEAR IN THIS INCREMENT

 AVERAGE HEAT FLUX                  2.573E-03   TIME AVG. HEAT FLUX   1.415E-03
 LARGEST RESIDUAL HEAT FLUX         3.265E-10   AT NODE        958   DOF 12
   INSTANCE: PLATE-1                                                                         
 LARGEST INCREMENT OF TEMP.         3.312E-02   AT NODE        958   DOF 11
   INSTANCE: PLATE-1                                                                         
 LARGEST CORRECTION TO TEMP.        1.737E-04   AT NODE        958   DOF 11
   INSTANCE: PLATE-1                                                                         
          THE HEAT FLUX EQUILIBRIUM EQUATIONS HAVE CONVERGED

 ITERATION SUMMARY FOR THE INCREMENT:   1 TOTAL ITERATIONS, OF WHICH
   0 ARE SEVERE DISCONTINUITY ITERATIONS AND  1 ARE EQUILIBRIUM ITERATIONS.

 TIME INCREMENT COMPLETED  1.000E+04,  FRACTION OF STEP COMPLETED  2.200E-02
 STEP TIME COMPLETED       2.200E+05,  TOTAL TIME COMPLETED        2.200E+05


  INCREMENT    23 STARTS. ATTEMPT NUMBER  1, TIME INCREMENT  1.000E+04
 
	UNSYMMETRIC NEW DIRECT SPARSE SOLVER RUNNING ON
 	1 HOST x 1 MPI RANK PER HOST x 8 THREADS PER RANK
        NUMBER OF EQUATIONS:  131150
        NUMBER OF RHS:        1
        NUMBER OF FLOPS:      2.469e+11
        SOLVER ELAPSED TIME:  1.3s

               CONVERGENCE CHECKS FOR EQUILIBRIUM ITERATION     1


 AVERAGE FORCE                      1.980E-04   TIME AVG. FORCE       1.032E-04
 LARGEST SCALED RESIDUAL FORCE      6.832E-17   AT NODE       1193   DOF  2
   INSTANCE: PLATE-1                                                                         
  CORRESPONDING RESIDUAL FORCE      6.832E-17
 LARGEST INCREMENT OF DISP.         1.064E-08   AT NODE        960   DOF  2
   INSTANCE: PLATE-1                                                                         
 LARGEST CORRECTION TO DISP.       -5.102E-13   AT NODE       3388   DOF  2
   INSTANCE: PLATE-1                                                                         
          THE FORCE     EQUILIBRIUM RESPONSE WAS LINEAR IN THIS INCREMENT

 AVERAGE HEAT FLUX                  2.680E-03   TIME AVG. HEAT FLUX   1.473E-03
 LARGEST RESIDUAL HEAT FLUX         3.554E-10   AT NODE        958   DOF 12
   INSTANCE: PLATE-1                                                                         
 LARGEST INCREMENT OF TEMP.         3.329E-02   AT NODE        958   DOF 11
   INSTANCE: PLATE-1                                                                         
 LARGEST CORRECTION TO TEMP.        1.736E-04   AT NODE        958   DOF 11
   INSTANCE: PLATE-1                                                                         
          THE HEAT FLUX EQUILIBRIUM EQUATIONS HAVE CONVERGED

 ITERATION SUMMARY FOR THE INCREMENT:   1 TOTAL ITERATIONS, OF WHICH
   0 ARE SEVERE DISCONTINUITY ITERATIONS AND  1 ARE EQUILIBRIUM ITERATIONS.

 TIME INCREMENT COMPLETED  1.000E+04,  FRACTION OF STEP COMPLETED  2.300E-02
 STEP TIME COMPLETED       2.300E+05,  TOTAL TIME COMPLETED        2.300E+05


  INCREMENT    24 STARTS. ATTEMPT NUMBER  1, TIME INCREMENT  1.000E+04
 
	UNSYMMETRIC NEW DIRECT SPARSE SOLVER RUNNING ON
 	1 HOST x 1 MPI RANK PER HOST x 8 THREADS PER RANK
        NUMBER OF EQUATIONS:  131150
        NUMBER OF RHS:        1
        NUMBER OF FLOPS:      2.469e+11
        SOLVER ELAPSED TIME:  1.3s

               CONVERGENCE CHECKS FOR EQUILIBRIUM ITERATION     1


 AVERAGE FORCE                      2.066E-04   TIME AVG. FORCE       1.075E-04
 LARGEST SCALED RESIDUAL FORCE     -4.570E-17   AT NODE       1581   DOF  2
   INSTANCE: PLATE-1                                                                         
  CORRESPONDING RESIDUAL FORCE     -4.570E-17
 LARGEST INCREMENT OF DISP.         1.064E-08   AT NODE        960   DOF  2
   INSTANCE: PLATE-1                                                                         
 LARGEST CORRECTION TO DISP.       -5.354E-13   AT NODE       3388   DOF  2
   INSTANCE: PLATE-1                                                                         
          THE FORCE     EQUILIBRIUM RESPONSE WAS LINEAR IN THIS INCREMENT

 AVERAGE HEAT FLUX                  2.784E-03   TIME AVG. HEAT FLUX   1.530E-03
 LARGEST RESIDUAL HEAT FLUX         3.851E-10   AT NODE        958   DOF 12
   INSTANCE: PLATE-1                                                                         
 LARGEST INCREMENT OF TEMP.         3.347E-02   AT NODE        958   DOF 11
   INSTANCE: PLATE-1                                                                         
 LARGEST CORRECTION TO TEMP.        1.735E-04   AT NODE        958   DOF 11
   INSTANCE: PLATE-1                                                                         
          THE HEAT FLUX EQUILIBRIUM EQUATIONS HAVE CONVERGED

 ITERATION SUMMARY FOR THE INCREMENT:   1 TOTAL ITERATIONS, OF WHICH
   0 ARE SEVERE DISCONTINUITY ITERATIONS AND  1 ARE EQUILIBRIUM ITERATIONS.

 TIME INCREMENT COMPLETED  1.000E+04,  FRACTION OF STEP COMPLETED  2.400E-02
 STEP TIME COMPLETED       2.400E+05,  TOTAL TIME COMPLETED        2.400E+05


  INCREMENT    25 STARTS. ATTEMPT NUMBER  1, TIME INCREMENT  1.000E+04
 
	UNSYMMETRIC NEW DIRECT SPARSE SOLVER RUNNING ON
 	1 HOST x 1 MPI RANK PER HOST x 8 THREADS PER RANK
        NUMBER OF EQUATIONS:  131150
        NUMBER OF RHS:        1
        NUMBER OF FLOPS:      2.469e+11
        SOLVER ELAPSED TIME:  1.3s

               CONVERGENCE CHECKS FOR EQUILIBRIUM ITERATION     1


 AVERAGE FORCE                      2.152E-04   TIME AVG. FORCE       1.118E-04
 LARGEST SCALED RESIDUAL FORCE     -4.928E-17   AT NODE        589   DOF  2
   INSTANCE: PLATE-1                                                                         
  CORRESPONDING RESIDUAL FORCE     -4.928E-17
 LARGEST INCREMENT OF DISP.         1.064E-08   AT NODE        960   DOF  2
   INSTANCE: PLATE-1                                                                         
 LARGEST CORRECTION TO DISP.       -5.606E-13   AT NODE       3388   DOF  2
   INSTANCE: PLATE-1                                                                         
          THE FORCE     EQUILIBRIUM RESPONSE WAS LINEAR IN THIS INCREMENT

 AVERAGE HEAT FLUX                  2.890E-03   TIME AVG. HEAT FLUX   1.587E-03
 LARGEST RESIDUAL HEAT FLUX         4.158E-10   AT NODE        958   DOF 12
   INSTANCE: PLATE-1                                                                         
 LARGEST INCREMENT OF TEMP.         3.364E-02   AT NODE        958   DOF 11
   INSTANCE: PLATE-1                                                                         
 LARGEST CORRECTION TO TEMP.        1.734E-04   AT NODE        958   DOF 11
   INSTANCE: PLATE-1                                                                         
          THE HEAT FLUX EQUILIBRIUM EQUATIONS HAVE CONVERGED

 ITERATION SUMMARY FOR THE INCREMENT:   1 TOTAL ITERATIONS, OF WHICH
   0 ARE SEVERE DISCONTINUITY ITERATIONS AND  1 ARE EQUILIBRIUM ITERATIONS.

 TIME INCREMENT COMPLETED  1.000E+04,  FRACTION OF STEP COMPLETED  2.500E-02
 STEP TIME COMPLETED       2.500E+05,  TOTAL TIME COMPLETED        2.500E+05


  INCREMENT    26 STARTS. ATTEMPT NUMBER  1, TIME INCREMENT  1.000E+04
 
	UNSYMMETRIC NEW DIRECT SPARSE SOLVER RUNNING ON
 	1 HOST x 1 MPI RANK PER HOST x 8 THREADS PER RANK
        NUMBER OF EQUATIONS:  131150
        NUMBER OF RHS:        1
        NUMBER OF FLOPS:      2.469e+11
        SOLVER ELAPSED TIME:  1.3s

               CONVERGENCE CHECKS FOR EQUILIBRIUM ITERATION     1


 AVERAGE FORCE                      2.237E-04   TIME AVG. FORCE       1.161E-04
 LARGEST SCALED RESIDUAL FORCE      6.332E-17   AT NODE      20063   DOF  2
   INSTANCE: PLATE-1                                                                         
  CORRESPONDING RESIDUAL FORCE      6.332E-17
 LARGEST INCREMENT OF DISP.         1.064E-08   AT NODE        960   DOF  2
   INSTANCE: PLATE-1                                                                         
 LARGEST CORRECTION TO DISP.       -5.859E-13   AT NODE       3388   DOF  2
   INSTANCE: PLATE-1                                                                         
          THE FORCE     EQUILIBRIUM RESPONSE WAS LINEAR IN THIS INCREMENT

 AVERAGE HEAT FLUX                  2.995E-03   TIME AVG. HEAT FLUX   1.643E-03
 LARGEST RESIDUAL HEAT FLUX         4.472E-10   AT NODE        958   DOF 12
   INSTANCE: PLATE-1                                                                         
 LARGEST INCREMENT OF TEMP.         3.381E-02   AT NODE        958   DOF 11
   INSTANCE: PLATE-1                                                                         
 LARGEST CORRECTION TO TEMP.        1.733E-04   AT NODE        958   DOF 11
   INSTANCE: PLATE-1                                                                         
          THE HEAT FLUX EQUILIBRIUM EQUATIONS HAVE CONVERGED

 ITERATION SUMMARY FOR THE INCREMENT:   1 TOTAL ITERATIONS, OF WHICH
   0 ARE SEVERE DISCONTINUITY ITERATIONS AND  1 ARE EQUILIBRIUM ITERATIONS.

 TIME INCREMENT COMPLETED  1.000E+04,  FRACTION OF STEP COMPLETED  2.600E-02
 STEP TIME COMPLETED       2.600E+05,  TOTAL TIME COMPLETED        2.600E+05


  INCREMENT    27 STARTS. ATTEMPT NUMBER  1, TIME INCREMENT  1.000E+04
 
	UNSYMMETRIC NEW DIRECT SPARSE SOLVER RUNNING ON
 	1 HOST x 1 MPI RANK PER HOST x 8 THREADS PER RANK
        NUMBER OF EQUATIONS:  131150
        NUMBER OF RHS:        1
        NUMBER OF FLOPS:      2.469e+11
        SOLVER ELAPSED TIME:  1.3s

               CONVERGENCE CHECKS FOR EQUILIBRIUM ITERATION     1


 AVERAGE FORCE                      2.323E-04   TIME AVG. FORCE       1.204E-04
 LARGEST SCALED RESIDUAL FORCE      5.291E-17   AT NODE      22121   DOF  2
   INSTANCE: PLATE-1                                                                         
  CORRESPONDING RESIDUAL FORCE      5.291E-17
 LARGEST INCREMENT OF DISP.         1.064E-08   AT NODE        960   DOF  2
   INSTANCE: PLATE-1                                                                         
 LARGEST CORRECTION TO DISP.       -6.113E-13   AT NODE       3388   DOF  2
   INSTANCE: PLATE-1                                                                         
          THE FORCE     EQUILIBRIUM RESPONSE WAS LINEAR IN THIS INCREMENT

 AVERAGE HEAT FLUX                  3.100E-03   TIME AVG. HEAT FLUX   1.699E-03
 LARGEST RESIDUAL HEAT FLUX         4.794E-10   AT NODE        958   DOF 12
   INSTANCE: PLATE-1                                                                         
 LARGEST INCREMENT OF TEMP.         3.399E-02   AT NODE        958   DOF 11
   INSTANCE: PLATE-1                                                                         
 LARGEST CORRECTION TO TEMP.        1.731E-04   AT NODE        958   DOF 11
   INSTANCE: PLATE-1                                                                         
          THE HEAT FLUX EQUILIBRIUM EQUATIONS HAVE CONVERGED

 ITERATION SUMMARY FOR THE INCREMENT:   1 TOTAL ITERATIONS, OF WHICH
   0 ARE SEVERE DISCONTINUITY ITERATIONS AND  1 ARE EQUILIBRIUM ITERATIONS.

 TIME INCREMENT COMPLETED  1.000E+04,  FRACTION OF STEP COMPLETED  2.700E-02
 STEP TIME COMPLETED       2.700E+05,  TOTAL TIME COMPLETED        2.700E+05


  INCREMENT    28 STARTS. ATTEMPT NUMBER  1, TIME INCREMENT  1.000E+04
 
	UNSYMMETRIC NEW DIRECT SPARSE SOLVER RUNNING ON
 	1 HOST x 1 MPI RANK PER HOST x 8 THREADS PER RANK
        NUMBER OF EQUATIONS:  131150
        NUMBER OF RHS:        1
        NUMBER OF FLOPS:      2.469e+11
        SOLVER ELAPSED TIME:  1.3s

               CONVERGENCE CHECKS FOR EQUILIBRIUM ITERATION     1


 AVERAGE FORCE                      2.409E-04   TIME AVG. FORCE       1.247E-04
 LARGEST SCALED RESIDUAL FORCE     -4.930E-17   AT NODE        715   DOF  2
   INSTANCE: PLATE-1                                                                         
  CORRESPONDING RESIDUAL FORCE     -4.930E-17
 LARGEST INCREMENT OF DISP.         1.064E-08   AT NODE        960   DOF  2
   INSTANCE: PLATE-1                                                                         
 LARGEST CORRECTION TO DISP.       -6.368E-13   AT NODE       3388   DOF  2
   INSTANCE: PLATE-1                                                                         
          THE FORCE     EQUILIBRIUM RESPONSE WAS LINEAR IN THIS INCREMENT

 AVERAGE HEAT FLUX                  3.203E-03   TIME AVG. HEAT FLUX   1.755E-03
 LARGEST RESIDUAL HEAT FLUX         5.123E-10   AT NODE        958   DOF 12
   INSTANCE: PLATE-1                                                                         
 LARGEST INCREMENT OF TEMP.         3.416E-02   AT NODE        958   DOF 11
   INSTANCE: PLATE-1                                                                         
 LARGEST CORRECTION TO TEMP.        1.730E-04   AT NODE        958   DOF 11
   INSTANCE: PLATE-1                                                                         
          THE HEAT FLUX EQUILIBRIUM EQUATIONS HAVE CONVERGED

 ITERATION SUMMARY FOR THE INCREMENT:   1 TOTAL ITERATIONS, OF WHICH
   0 ARE SEVERE DISCONTINUITY ITERATIONS AND  1 ARE EQUILIBRIUM ITERATIONS.

 TIME INCREMENT COMPLETED  1.000E+04,  FRACTION OF STEP COMPLETED  2.800E-02
 STEP TIME COMPLETED       2.800E+05,  TOTAL TIME COMPLETED        2.800E+05


  INCREMENT    29 STARTS. ATTEMPT NUMBER  1, TIME INCREMENT  1.000E+04
 
	UNSYMMETRIC NEW DIRECT SPARSE SOLVER RUNNING ON
 	1 HOST x 1 MPI RANK PER HOST x 8 THREADS PER RANK
        NUMBER OF EQUATIONS:  131150
        NUMBER OF RHS:        1
        NUMBER OF FLOPS:      2.469e+11
        SOLVER ELAPSED TIME:  1.3s

               CONVERGENCE CHECKS FOR EQUILIBRIUM ITERATION     1


 AVERAGE FORCE                      2.494E-04   TIME AVG. FORCE       1.290E-04
 LARGEST SCALED RESIDUAL FORCE     -6.245E-17   AT NODE      24179   DOF  2
   INSTANCE: PLATE-1                                                                         
  CORRESPONDING RESIDUAL FORCE     -6.245E-17
 LARGEST INCREMENT OF DISP.         1.064E-08   AT NODE        960   DOF  2
   INSTANCE: PLATE-1                                                                         
 LARGEST CORRECTION TO DISP.       -6.623E-13   AT NODE       3388   DOF  2
   INSTANCE: PLATE-1                                                                         
          THE FORCE     EQUILIBRIUM RESPONSE WAS LINEAR IN THIS INCREMENT

 AVERAGE HEAT FLUX                  3.307E-03   TIME AVG. HEAT FLUX   1.810E-03
 LARGEST RESIDUAL HEAT FLUX         5.459E-10   AT NODE        958   DOF 12
   INSTANCE: PLATE-1                                                                         
 LARGEST INCREMENT OF TEMP.         3.433E-02   AT NODE        958   DOF 11
   INSTANCE: PLATE-1                                                                         
 LARGEST CORRECTION TO TEMP.        1.728E-04   AT NODE        958   DOF 11
   INSTANCE: PLATE-1                                                                         
          THE HEAT FLUX EQUILIBRIUM EQUATIONS HAVE CONVERGED

 ITERATION SUMMARY FOR THE INCREMENT:   1 TOTAL ITERATIONS, OF WHICH
   0 ARE SEVERE DISCONTINUITY ITERATIONS AND  1 ARE EQUILIBRIUM ITERATIONS.

 TIME INCREMENT COMPLETED  1.000E+04,  FRACTION OF STEP COMPLETED  2.900E-02
 STEP TIME COMPLETED       2.900E+05,  TOTAL TIME COMPLETED        2.900E+05


  INCREMENT    30 STARTS. ATTEMPT NUMBER  1, TIME INCREMENT  1.000E+04
 
	UNSYMMETRIC NEW DIRECT SPARSE SOLVER RUNNING ON
 	1 HOST x 1 MPI RANK PER HOST x 8 THREADS PER RANK
        NUMBER OF EQUATIONS:  131150
        NUMBER OF RHS:        1
        NUMBER OF FLOPS:      2.469e+11
        SOLVER ELAPSED TIME:  1.3s

               CONVERGENCE CHECKS FOR EQUILIBRIUM ITERATION     1


 AVERAGE FORCE                      2.580E-04   TIME AVG. FORCE       1.333E-04
 LARGEST SCALED RESIDUAL FORCE     -2.121E-09   AT NODE          2   DOF  3
   INSTANCE: PLATE-1                                                                         
  CORRESPONDING RESIDUAL FORCE     -2.121E-09
 LARGEST INCREMENT OF DISP.         1.064E-08   AT NODE        960   DOF  2
   INSTANCE: PLATE-1                                                                         
 LARGEST CORRECTION TO DISP.        2.162E-11   AT NODE         57   DOF  2
   INSTANCE: PLATE-1                                                                         
          THE FORCE     EQUILIBRIUM EQUATIONS HAVE CONVERGED

 AVERAGE HEAT FLUX                  3.411E-03   TIME AVG. HEAT FLUX   1.865E-03
 LARGEST RESIDUAL HEAT FLUX         5.801E-10   AT NODE        958   DOF 12
   INSTANCE: PLATE-1                                                                         
 LARGEST INCREMENT OF TEMP.         3.451E-02   AT NODE        958   DOF 11
   INSTANCE: PLATE-1                                                                         
 LARGEST CORRECTION TO TEMP.        1.725E-04   AT NODE        958   DOF 11
   INSTANCE: PLATE-1                                                                         
          THE HEAT FLUX EQUILIBRIUM EQUATIONS HAVE CONVERGED

 ITERATION SUMMARY FOR THE INCREMENT:   1 TOTAL ITERATIONS, OF WHICH
   0 ARE SEVERE DISCONTINUITY ITERATIONS AND  1 ARE EQUILIBRIUM ITERATIONS.

 TIME INCREMENT COMPLETED  1.000E+04,  FRACTION OF STEP COMPLETED  3.000E-02
 STEP TIME COMPLETED       3.000E+05,  TOTAL TIME COMPLETED        3.000E+05


  INCREMENT    31 STARTS. ATTEMPT NUMBER  1, TIME INCREMENT  1.000E+04
 
	UNSYMMETRIC NEW DIRECT SPARSE SOLVER RUNNING ON
 	1 HOST x 1 MPI RANK PER HOST x 8 THREADS PER RANK
        NUMBER OF EQUATIONS:  131150
        NUMBER OF RHS:        1
        NUMBER OF FLOPS:      2.469e+11
        SOLVER ELAPSED TIME:  1.3s

               CONVERGENCE CHECKS FOR EQUILIBRIUM ITERATION     1


 AVERAGE FORCE                      2.665E-04   TIME AVG. FORCE       1.376E-04
 LARGEST SCALED RESIDUAL FORCE      3.017E-08   AT NODE       1436   DOF  1
   INSTANCE: PLATE-1                                                                         
  CORRESPONDING RESIDUAL FORCE      3.017E-08
 LARGEST INCREMENT OF DISP.         1.064E-08   AT NODE        960   DOF  2
   INSTANCE: PLATE-1                                                                         
 LARGEST CORRECTION TO DISP.       -5.634E-11   AT NODE          2   DOF  3
   INSTANCE: PLATE-1                                                                         
          THE FORCE     EQUILIBRIUM EQUATIONS HAVE CONVERGED

 AVERAGE HEAT FLUX                  3.512E-03   TIME AVG. HEAT FLUX   1.920E-03
 LARGEST RESIDUAL HEAT FLUX        -2.065E-09   AT NODE          2   DOF 12
   INSTANCE: PLATE-1                                                                         
 LARGEST INCREMENT OF TEMP.         3.503E-02   AT NODE        958   DOF 11
   INSTANCE: PLATE-1                                                                         
 LARGEST CORRECTION TO TEMP.       -2.002E-03   AT NODE          2   DOF 11
   INSTANCE: PLATE-1                                                                         
 ESTIMATE OF TEMP.    CORRECTION   -3.164E-10
 HEAT FLUX EQUILIB. ACCEPTED BASED ON SMALL RESIDUAL AND ESTIMATED CORRECTION

 ITERATION SUMMARY FOR THE INCREMENT:   1 TOTAL ITERATIONS, OF WHICH
   0 ARE SEVERE DISCONTINUITY ITERATIONS AND  1 ARE EQUILIBRIUM ITERATIONS.

 TIME INCREMENT COMPLETED  1.000E+04,  FRACTION OF STEP COMPLETED  3.100E-02
 STEP TIME COMPLETED       3.100E+05,  TOTAL TIME COMPLETED        3.100E+05


  INCREMENT    32 STARTS. ATTEMPT NUMBER  1, TIME INCREMENT  1.000E+04
 
	UNSYMMETRIC NEW DIRECT SPARSE SOLVER RUNNING ON
 	1 HOST x 1 MPI RANK PER HOST x 8 THREADS PER RANK
        NUMBER OF EQUATIONS:  131150
        NUMBER OF RHS:        1
        NUMBER OF FLOPS:      2.469e+11
        SOLVER ELAPSED TIME:  1.3s

               CONVERGENCE CHECKS FOR EQUILIBRIUM ITERATION     1


 AVERAGE FORCE                      2.751E-04   TIME AVG. FORCE       1.419E-04
 LARGEST SCALED RESIDUAL FORCE      2.738E-08   AT NODE        958   DOF  1
   INSTANCE: PLATE-1                                                                         
  CORRESPONDING RESIDUAL FORCE      2.738E-08
 LARGEST INCREMENT OF DISP.         1.064E-08   AT NODE        960   DOF  2
   INSTANCE: PLATE-1                                                                         
 LARGEST CORRECTION TO DISP.       -3.655E-11   AT NODE       2858   DOF  2
   INSTANCE: PLATE-1                                                                         
          THE FORCE     EQUILIBRIUM EQUATIONS HAVE CONVERGED

 AVERAGE HEAT FLUX                  3.613E-03   TIME AVG. HEAT FLUX   1.975E-03
 LARGEST RESIDUAL HEAT FLUX        -9.646E-09   AT NODE       1436   DOF 12
   INSTANCE: PLATE-1                                                                         
 LARGEST INCREMENT OF TEMP.         3.510E-02   AT NODE        958   DOF 11
   INSTANCE: PLATE-1                                                                         
 LARGEST CORRECTION TO TEMP.       -5.446E-03   AT NODE       1914   DOF 11
   INSTANCE: PLATE-1                                                                         
 ESTIMATE OF TEMP.    CORRECTION   -1.572E-09
 HEAT FLUX EQUILIB. ACCEPTED BASED ON SMALL RESIDUAL AND ESTIMATED CORRECTION

 ITERATION SUMMARY FOR THE INCREMENT:   1 TOTAL ITERATIONS, OF WHICH
   0 ARE SEVERE DISCONTINUITY ITERATIONS AND  1 ARE EQUILIBRIUM ITERATIONS.

 TIME INCREMENT COMPLETED  1.000E+04,  FRACTION OF STEP COMPLETED  3.200E-02
 STEP TIME COMPLETED       3.200E+05,  TOTAL TIME COMPLETED        3.200E+05


  INCREMENT    33 STARTS. ATTEMPT NUMBER  1, TIME INCREMENT  1.000E+04
 
	UNSYMMETRIC NEW DIRECT SPARSE SOLVER RUNNING ON
 	1 HOST x 1 MPI RANK PER HOST x 8 THREADS PER RANK
        NUMBER OF EQUATIONS:  131150
        NUMBER OF RHS:        1
        NUMBER OF FLOPS:      2.469e+11
        SOLVER ELAPSED TIME:  1.3s

               CONVERGENCE CHECKS FOR EQUILIBRIUM ITERATION     1


 AVERAGE FORCE                      2.836E-04   TIME AVG. FORCE       1.462E-04
 LARGEST SCALED RESIDUAL FORCE      3.565E-12   AT NODE       1436   DOF  1
   INSTANCE: PLATE-1                                                                         
  CORRESPONDING RESIDUAL FORCE      3.565E-12
 LARGEST INCREMENT OF DISP.         1.064E-08   AT NODE        960   DOF  2
   INSTANCE: PLATE-1                                                                         
 LARGEST CORRECTION TO DISP.       -7.708E-13   AT NODE       3385   DOF  2
   INSTANCE: PLATE-1                                                                         
          THE FORCE     EQUILIBRIUM EQUATIONS HAVE CONVERGED

 AVERAGE HEAT FLUX                  3.712E-03   TIME AVG. HEAT FLUX   2.029E-03
 LARGEST RESIDUAL HEAT FLUX        -7.051E-09   AT NODE        958   DOF 12
   INSTANCE: PLATE-1                                                                         
 LARGEST INCREMENT OF TEMP.         3.373E-02   AT NODE        958   DOF 11
   INSTANCE: PLATE-1                                                                         
 LARGEST CORRECTION TO TEMP.       -1.846E-03   AT NODE       4175   DOF 11
   INSTANCE: PLATE-1                                                                         
 ESTIMATE OF TEMP.    CORRECTION    6.046E-10
 HEAT FLUX EQUILIB. ACCEPTED BASED ON SMALL RESIDUAL AND ESTIMATED CORRECTION

 ITERATION SUMMARY FOR THE INCREMENT:   1 TOTAL ITERATIONS, OF WHICH
   0 ARE SEVERE DISCONTINUITY ITERATIONS AND  1 ARE EQUILIBRIUM ITERATIONS.

 TIME INCREMENT COMPLETED  1.000E+04,  FRACTION OF STEP COMPLETED  3.300E-02
 STEP TIME COMPLETED       3.300E+05,  TOTAL TIME COMPLETED        3.300E+05


  INCREMENT    34 STARTS. ATTEMPT NUMBER  1, TIME INCREMENT  1.000E+04
 
	UNSYMMETRIC NEW DIRECT SPARSE SOLVER RUNNING ON
 	1 HOST x 1 MPI RANK PER HOST x 8 THREADS PER RANK
        NUMBER OF EQUATIONS:  131150
        NUMBER OF RHS:        1
        NUMBER OF FLOPS:      2.469e+11
        SOLVER ELAPSED TIME:  1.3s

               CONVERGENCE CHECKS FOR EQUILIBRIUM ITERATION     1


 AVERAGE FORCE                      2.921E-04   TIME AVG. FORCE       1.505E-04
 LARGEST SCALED RESIDUAL FORCE      3.785E-12   AT NODE       1436   DOF  1
   INSTANCE: PLATE-1                                                                         
  CORRESPONDING RESIDUAL FORCE      3.785E-12
 LARGEST INCREMENT OF DISP.         1.064E-08   AT NODE        960   DOF  2
   INSTANCE: PLATE-1                                                                         
 LARGEST CORRECTION TO DISP.       -7.952E-13   AT NODE       3385   DOF  2
   INSTANCE: PLATE-1                                                                         
          THE FORCE     EQUILIBRIUM EQUATIONS HAVE CONVERGED

 AVERAGE HEAT FLUX                  3.809E-03   TIME AVG. HEAT FLUX   2.083E-03
 LARGEST RESIDUAL HEAT FLUX         5.674E-10   AT NODE        958   DOF 12
   INSTANCE: PLATE-1                                                                         
 LARGEST INCREMENT OF TEMP.         3.386E-02   AT NODE        958   DOF 11
   INSTANCE: PLATE-1                                                                         
 LARGEST CORRECTION TO TEMP.        1.256E-04   AT NODE        958   DOF 11
   INSTANCE: PLATE-1                                                                         
          THE HEAT FLUX EQUILIBRIUM EQUATIONS HAVE CONVERGED

 ITERATION SUMMARY FOR THE INCREMENT:   1 TOTAL ITERATIONS, OF WHICH
   0 ARE SEVERE DISCONTINUITY ITERATIONS AND  1 ARE EQUILIBRIUM ITERATIONS.

 TIME INCREMENT COMPLETED  1.000E+04,  FRACTION OF STEP COMPLETED  3.400E-02
 STEP TIME COMPLETED       3.400E+05,  TOTAL TIME COMPLETED        3.400E+05


  INCREMENT    35 STARTS. ATTEMPT NUMBER  1, TIME INCREMENT  1.000E+04
 
	UNSYMMETRIC NEW DIRECT SPARSE SOLVER RUNNING ON
 	1 HOST x 1 MPI RANK PER HOST x 8 THREADS PER RANK
        NUMBER OF EQUATIONS:  131150
        NUMBER OF RHS:        1
        NUMBER OF FLOPS:      2.469e+11
        SOLVER ELAPSED TIME:  1.3s

               CONVERGENCE CHECKS FOR EQUILIBRIUM ITERATION     1


 AVERAGE FORCE                      3.007E-04   TIME AVG. FORCE       1.548E-04
 LARGEST SCALED RESIDUAL FORCE     -3.081E-08   AT NODE          2   DOF  3
   INSTANCE: PLATE-1                                                                         
  CORRESPONDING RESIDUAL FORCE     -3.081E-08
 LARGEST INCREMENT OF DISP.         1.064E-08   AT NODE        960   DOF  2
   INSTANCE: PLATE-1                                                                         
 LARGEST CORRECTION TO DISP.        4.447E-11   AT NODE       1914   DOF  3
   INSTANCE: PLATE-1                                                                         
          THE FORCE     EQUILIBRIUM EQUATIONS HAVE CONVERGED

 AVERAGE HEAT FLUX                  3.908E-03   TIME AVG. HEAT FLUX   2.137E-03
 LARGEST RESIDUAL HEAT FLUX         5.911E-10   AT NODE        958   DOF 12
   INSTANCE: PLATE-1                                                                         
 LARGEST INCREMENT OF TEMP.         3.399E-02   AT NODE        958   DOF 11
   INSTANCE: PLATE-1                                                                         
 LARGEST CORRECTION TO TEMP.        1.264E-04   AT NODE        958   DOF 11
   INSTANCE: PLATE-1                                                                         
          THE HEAT FLUX EQUILIBRIUM EQUATIONS HAVE CONVERGED

 ITERATION SUMMARY FOR THE INCREMENT:   1 TOTAL ITERATIONS, OF WHICH
   0 ARE SEVERE DISCONTINUITY ITERATIONS AND  1 ARE EQUILIBRIUM ITERATIONS.

 TIME INCREMENT COMPLETED  1.000E+04,  FRACTION OF STEP COMPLETED  3.500E-02
 STEP TIME COMPLETED       3.500E+05,  TOTAL TIME COMPLETED        3.500E+05


  INCREMENT    36 STARTS. ATTEMPT NUMBER  1, TIME INCREMENT  1.000E+04
 
	UNSYMMETRIC NEW DIRECT SPARSE SOLVER RUNNING ON
 	1 HOST x 1 MPI RANK PER HOST x 8 THREADS PER RANK
        NUMBER OF EQUATIONS:  131150
        NUMBER OF RHS:        1
        NUMBER OF FLOPS:      2.469e+11
        SOLVER ELAPSED TIME:  1.3s

               CONVERGENCE CHECKS FOR EQUILIBRIUM ITERATION     1


 AVERAGE FORCE                      3.092E-04   TIME AVG. FORCE       1.591E-04
 LARGEST SCALED RESIDUAL FORCE      3.186E-08   AT NODE       1914   DOF  3
   INSTANCE: PLATE-1                                                                         
  CORRESPONDING RESIDUAL FORCE      3.186E-08
 LARGEST INCREMENT OF DISP.         1.064E-08   AT NODE        960   DOF  2
   INSTANCE: PLATE-1                                                                         
 LARGEST CORRECTION TO DISP.       -4.853E-11   AT NODE          2   DOF  3
   INSTANCE: PLATE-1                                                                         
          THE FORCE     EQUILIBRIUM EQUATIONS HAVE CONVERGED

 AVERAGE HEAT FLUX                  4.007E-03   TIME AVG. HEAT FLUX   2.190E-03
 LARGEST RESIDUAL HEAT FLUX        -9.735E-09   AT NODE        480   DOF 12
   INSTANCE: PLATE-1                                                                         
 LARGEST INCREMENT OF TEMP.         3.451E-02   AT NODE        958   DOF 11
   INSTANCE: PLATE-1                                                                         
 LARGEST CORRECTION TO TEMP.       -5.657E-03   AT NODE          2   DOF 11
   INSTANCE: PLATE-1                                                                         
 ESTIMATE OF TEMP.    CORRECTION   -1.509E-09
 HEAT FLUX EQUILIB. ACCEPTED BASED ON SMALL RESIDUAL AND ESTIMATED CORRECTION

 ITERATION SUMMARY FOR THE INCREMENT:   1 TOTAL ITERATIONS, OF WHICH
   0 ARE SEVERE DISCONTINUITY ITERATIONS AND  1 ARE EQUILIBRIUM ITERATIONS.

 TIME INCREMENT COMPLETED  1.000E+04,  FRACTION OF STEP COMPLETED  3.600E-02
 STEP TIME COMPLETED       3.600E+05,  TOTAL TIME COMPLETED        3.600E+05


  INCREMENT    37 STARTS. ATTEMPT NUMBER  1, TIME INCREMENT  1.000E+04
 
	UNSYMMETRIC NEW DIRECT SPARSE SOLVER RUNNING ON
 	1 HOST x 1 MPI RANK PER HOST x 8 THREADS PER RANK
        NUMBER OF EQUATIONS:  131150
[...]
 LARGEST INCREMENT OF DISP.        -1.253E-08   AT NODE       7147   DOF  1
   INSTANCE: PLATE-1                                                                         
 LARGEST CORRECTION TO DISP.        3.180E-11   AT NODE       7593   DOF  1
   INSTANCE: PLATE-1                                                                         
          THE FORCE     EQUILIBRIUM EQUATIONS HAVE CONVERGED

 AVERAGE HEAT FLUX                  6.477E-02   TIME AVG. HEAT FLUX   5.753E-02
 LARGEST RESIDUAL HEAT FLUX         3.079E-08   AT NODE        480   DOF 12
   INSTANCE: PLATE-1                                                                         
 LARGEST INCREMENT OF TEMP.        -3.018E-03   AT NODE      16148   DOF 11
   INSTANCE: PLATE-1                                                                         
 LARGEST CORRECTION TO TEMP.       -8.226E-06   AT NODE      18553   DOF 11
   INSTANCE: PLATE-1                                                                         
          THE HEAT FLUX EQUILIBRIUM EQUATIONS HAVE CONVERGED

 ITERATION SUMMARY FOR THE INCREMENT:   1 TOTAL ITERATIONS, OF WHICH
   0 ARE SEVERE DISCONTINUITY ITERATIONS AND  1 ARE EQUILIBRIUM ITERATIONS.

 TIME INCREMENT COMPLETED  1.000E+04,  FRACTION OF STEP COMPLETED  0.982    
 STEP TIME COMPLETED       9.820E+06,  TOTAL TIME COMPLETED        9.820E+06


  INCREMENT   983 STARTS. ATTEMPT NUMBER  1, TIME INCREMENT  1.000E+04
 
	UNSYMMETRIC NEW DIRECT SPARSE SOLVER RUNNING ON
 	1 HOST x 1 MPI RANK PER HOST x 8 THREADS PER RANK
        NUMBER OF EQUATIONS:  131150
        NUMBER OF RHS:        1
        NUMBER OF FLOPS:      2.469e+11
        SOLVER ELAPSED TIME:  2.0s

               CONVERGENCE CHECKS FOR EQUILIBRIUM ITERATION     1


 AVERAGE FORCE                      3.166E-04   TIME AVG. FORCE       7.259E-04
 LARGEST SCALED RESIDUAL FORCE     -1.281E-08   AT NODE      15413   DOF  3
   INSTANCE: PLATE-1                                                                         
  CORRESPONDING RESIDUAL FORCE     -1.281E-08
 LARGEST INCREMENT OF DISP.        -1.255E-08   AT NODE       7147   DOF  1
   INSTANCE: PLATE-1                                                                         
 LARGEST CORRECTION TO DISP.        3.165E-11   AT NODE       7593   DOF  1
   INSTANCE: PLATE-1                                                                         
          THE FORCE     EQUILIBRIUM EQUATIONS HAVE CONVERGED

 AVERAGE HEAT FLUX                  6.473E-02   TIME AVG. HEAT FLUX   5.754E-02
 LARGEST RESIDUAL HEAT FLUX         3.174E-08   AT NODE       1436   DOF 12
   INSTANCE: PLATE-1                                                                         
 LARGEST INCREMENT OF TEMP.        -3.012E-03   AT NODE      16148   DOF 11
   INSTANCE: PLATE-1                                                                         
 LARGEST CORRECTION TO TEMP.       -8.160E-06   AT NODE      18553   DOF 11
   INSTANCE: PLATE-1                                                                         
          THE HEAT FLUX EQUILIBRIUM EQUATIONS HAVE CONVERGED

 ITERATION SUMMARY FOR THE INCREMENT:   1 TOTAL ITERATIONS, OF WHICH
   0 ARE SEVERE DISCONTINUITY ITERATIONS AND  1 ARE EQUILIBRIUM ITERATIONS.

 TIME INCREMENT COMPLETED  1.000E+04,  FRACTION OF STEP COMPLETED  0.983    
 STEP TIME COMPLETED       9.830E+06,  TOTAL TIME COMPLETED        9.830E+06


  INCREMENT   984 STARTS. ATTEMPT NUMBER  1, TIME INCREMENT  1.000E+04
 
	UNSYMMETRIC NEW DIRECT SPARSE SOLVER RUNNING ON
 	1 HOST x 1 MPI RANK PER HOST x 8 THREADS PER RANK
        NUMBER OF EQUATIONS:  131150
        NUMBER OF RHS:        1
        NUMBER OF FLOPS:      2.469e+11
        SOLVER ELAPSED TIME:  2.0s

               CONVERGENCE CHECKS FOR EQUILIBRIUM ITERATION     1


 AVERAGE FORCE                      3.160E-04   TIME AVG. FORCE       7.255E-04
 LARGEST SCALED RESIDUAL FORCE     -3.352E-08   AT NODE      13870   DOF  3
   INSTANCE: PLATE-1                                                                         
  CORRESPONDING RESIDUAL FORCE     -3.352E-08
 LARGEST INCREMENT OF DISP.        -1.256E-08   AT NODE       7147   DOF  1
   INSTANCE: PLATE-1                                                                         
 LARGEST CORRECTION TO DISP.        3.174E-11   AT NODE       7593   DOF  1
   INSTANCE: PLATE-1                                                                         
          THE FORCE     EQUILIBRIUM EQUATIONS HAVE CONVERGED

 AVERAGE HEAT FLUX                  6.470E-02   TIME AVG. HEAT FLUX   5.754E-02
 LARGEST RESIDUAL HEAT FLUX         2.928E-08   AT NODE       1436   DOF 12
   INSTANCE: PLATE-1                                                                         
 LARGEST INCREMENT OF TEMP.        -3.007E-03   AT NODE      16148   DOF 11
   INSTANCE: PLATE-1                                                                         
 LARGEST CORRECTION TO TEMP.       -8.238E-06   AT NODE      16179   DOF 11
   INSTANCE: PLATE-1                                                                         
          THE HEAT FLUX EQUILIBRIUM EQUATIONS HAVE CONVERGED

 ITERATION SUMMARY FOR THE INCREMENT:   1 TOTAL ITERATIONS, OF WHICH
   0 ARE SEVERE DISCONTINUITY ITERATIONS AND  1 ARE EQUILIBRIUM ITERATIONS.

 TIME INCREMENT COMPLETED  1.000E+04,  FRACTION OF STEP COMPLETED  0.984    
 STEP TIME COMPLETED       9.840E+06,  TOTAL TIME COMPLETED        9.840E+06


  INCREMENT   985 STARTS. ATTEMPT NUMBER  1, TIME INCREMENT  1.000E+04
 
	UNSYMMETRIC NEW DIRECT SPARSE SOLVER RUNNING ON
 	1 HOST x 1 MPI RANK PER HOST x 8 THREADS PER RANK
        NUMBER OF EQUATIONS:  131150
        NUMBER OF RHS:        1
        NUMBER OF FLOPS:      2.469e+11
        SOLVER ELAPSED TIME:  2.1s

               CONVERGENCE CHECKS FOR EQUILIBRIUM ITERATION     1


 AVERAGE FORCE                      3.154E-04   TIME AVG. FORCE       7.251E-04
 LARGEST SCALED RESIDUAL FORCE      2.636E-09   AT NODE      12038   DOF  2
   INSTANCE: PLATE-1                                                                         
  CORRESPONDING RESIDUAL FORCE      2.636E-09
 LARGEST INCREMENT OF DISP.        -1.258E-08   AT NODE       7147   DOF  1
   INSTANCE: PLATE-1                                                                         
 LARGEST CORRECTION TO DISP.        3.120E-11   AT NODE       7593   DOF  1
   INSTANCE: PLATE-1                                                                         
          THE FORCE     EQUILIBRIUM EQUATIONS HAVE CONVERGED

 AVERAGE HEAT FLUX                  6.466E-02   TIME AVG. HEAT FLUX   5.755E-02
 LARGEST RESIDUAL HEAT FLUX         3.277E-08   AT NODE        480   DOF 12
   INSTANCE: PLATE-1                                                                         
 LARGEST INCREMENT OF TEMP.        -3.001E-03   AT NODE      16148   DOF 11
   INSTANCE: PLATE-1                                                                         
 LARGEST CORRECTION TO TEMP.       -8.272E-06   AT NODE      18553   DOF 11
   INSTANCE: PLATE-1                                                                         
          THE HEAT FLUX EQUILIBRIUM EQUATIONS HAVE CONVERGED

 ITERATION SUMMARY FOR THE INCREMENT:   1 TOTAL ITERATIONS, OF WHICH
   0 ARE SEVERE DISCONTINUITY ITERATIONS AND  1 ARE EQUILIBRIUM ITERATIONS.

 TIME INCREMENT COMPLETED  1.000E+04,  FRACTION OF STEP COMPLETED  0.985    
 STEP TIME COMPLETED       9.850E+06,  TOTAL TIME COMPLETED        9.850E+06


  INCREMENT   986 STARTS. ATTEMPT NUMBER  1, TIME INCREMENT  1.000E+04
 
	UNSYMMETRIC NEW DIRECT SPARSE SOLVER RUNNING ON
 	1 HOST x 1 MPI RANK PER HOST x 8 THREADS PER RANK
        NUMBER OF EQUATIONS:  131150
        NUMBER OF RHS:        1
        NUMBER OF FLOPS:      2.469e+11
        SOLVER ELAPSED TIME:  2.0s

               CONVERGENCE CHECKS FOR EQUILIBRIUM ITERATION     1


 AVERAGE FORCE                      3.148E-04   TIME AVG. FORCE       7.246E-04
 LARGEST SCALED RESIDUAL FORCE     -4.301E-09   AT NODE      22538   DOF  2
   INSTANCE: PLATE-1                                                                         
  CORRESPONDING RESIDUAL FORCE     -4.301E-09
 LARGEST INCREMENT OF DISP.        -1.260E-08   AT NODE       7147   DOF  1
   INSTANCE: PLATE-1                                                                         
 LARGEST CORRECTION TO DISP.        3.064E-11   AT NODE       7593   DOF  1
   INSTANCE: PLATE-1                                                                         
          THE FORCE     EQUILIBRIUM EQUATIONS HAVE CONVERGED

 AVERAGE HEAT FLUX                  6.462E-02   TIME AVG. HEAT FLUX   5.756E-02
 LARGEST RESIDUAL HEAT FLUX         3.462E-08   AT NODE       1436   DOF 12
   INSTANCE: PLATE-1                                                                         
 LARGEST INCREMENT OF TEMP.        -2.996E-03   AT NODE      16148   DOF 11
   INSTANCE: PLATE-1                                                                         
 LARGEST CORRECTION TO TEMP.       -8.141E-06   AT NODE      16179   DOF 11
   INSTANCE: PLATE-1                                                                         
          THE HEAT FLUX EQUILIBRIUM EQUATIONS HAVE CONVERGED

 ITERATION SUMMARY FOR THE INCREMENT:   1 TOTAL ITERATIONS, OF WHICH
   0 ARE SEVERE DISCONTINUITY ITERATIONS AND  1 ARE EQUILIBRIUM ITERATIONS.

 TIME INCREMENT COMPLETED  1.000E+04,  FRACTION OF STEP COMPLETED  0.986    
 STEP TIME COMPLETED       9.860E+06,  TOTAL TIME COMPLETED        9.860E+06


  INCREMENT   987 STARTS. ATTEMPT NUMBER  1, TIME INCREMENT  1.000E+04
 
	UNSYMMETRIC NEW DIRECT SPARSE SOLVER RUNNING ON
 	1 HOST x 1 MPI RANK PER HOST x 8 THREADS PER RANK
        NUMBER OF EQUATIONS:  131150
        NUMBER OF RHS:        1
        NUMBER OF FLOPS:      2.469e+11
        SOLVER ELAPSED TIME:  1.3s

               CONVERGENCE CHECKS FOR EQUILIBRIUM ITERATION     1


 AVERAGE FORCE                      3.142E-04   TIME AVG. FORCE       7.242E-04
 LARGEST SCALED RESIDUAL FORCE      7.352E-09   AT NODE      15387   DOF  2
   INSTANCE: PLATE-1                                                                         
  CORRESPONDING RESIDUAL FORCE      7.352E-09
 LARGEST INCREMENT OF DISP.        -1.262E-08   AT NODE       7147   DOF  1
   INSTANCE: PLATE-1                                                                         
 LARGEST CORRECTION TO DISP.        3.091E-11   AT NODE       7281   DOF  1
   INSTANCE: PLATE-1                                                                         
          THE FORCE     EQUILIBRIUM EQUATIONS HAVE CONVERGED

 AVERAGE HEAT FLUX                  6.458E-02   TIME AVG. HEAT FLUX   5.756E-02
 LARGEST RESIDUAL HEAT FLUX         3.217E-08   AT NODE        480   DOF 12
   INSTANCE: PLATE-1                                                                         
 LARGEST INCREMENT OF TEMP.        -2.991E-03   AT NODE      16148   DOF 11
   INSTANCE: PLATE-1                                                                         
 LARGEST CORRECTION TO TEMP.       -8.189E-06   AT NODE      18553   DOF 11
   INSTANCE: PLATE-1                                                                         
          THE HEAT FLUX EQUILIBRIUM EQUATIONS HAVE CONVERGED

 ITERATION SUMMARY FOR THE INCREMENT:   1 TOTAL ITERATIONS, OF WHICH
   0 ARE SEVERE DISCONTINUITY ITERATIONS AND  1 ARE EQUILIBRIUM ITERATIONS.

 TIME INCREMENT COMPLETED  1.000E+04,  FRACTION OF STEP COMPLETED  0.987    
 STEP TIME COMPLETED       9.870E+06,  TOTAL TIME COMPLETED        9.870E+06


  INCREMENT   988 STARTS. ATTEMPT NUMBER  1, TIME INCREMENT  1.000E+04
 
	UNSYMMETRIC NEW DIRECT SPARSE SOLVER RUNNING ON
 	1 HOST x 1 MPI RANK PER HOST x 8 THREADS PER RANK
        NUMBER OF EQUATIONS:  131150
        NUMBER OF RHS:        1
        NUMBER OF FLOPS:      2.469e+11
        SOLVER ELAPSED TIME:  1.4s

               CONVERGENCE CHECKS FOR EQUILIBRIUM ITERATION     1


 AVERAGE FORCE                      3.136E-04   TIME AVG. FORCE       7.238E-04
 LARGEST SCALED RESIDUAL FORCE     -2.967E-09   AT NODE      12294   DOF  2
   INSTANCE: PLATE-1                                                                         
  CORRESPONDING RESIDUAL FORCE     -2.967E-09
 LARGEST INCREMENT OF DISP.        -1.263E-08   AT NODE       7147   DOF  1
   INSTANCE: PLATE-1                                                                         
 LARGEST CORRECTION TO DISP.        3.036E-11   AT NODE       7593   DOF  1
   INSTANCE: PLATE-1                                                                         
          THE FORCE     EQUILIBRIUM EQUATIONS HAVE CONVERGED

 AVERAGE HEAT FLUX                  6.454E-02   TIME AVG. HEAT FLUX   5.757E-02
 LARGEST RESIDUAL HEAT FLUX         3.493E-08   AT NODE       1436   DOF 12
   INSTANCE: PLATE-1                                                                         
 LARGEST INCREMENT OF TEMP.        -2.985E-03   AT NODE      16148   DOF 11
   INSTANCE: PLATE-1                                                                         
 LARGEST CORRECTION TO TEMP.       -8.373E-06   AT NODE      18553   DOF 11
   INSTANCE: PLATE-1                                                                         
          THE HEAT FLUX EQUILIBRIUM EQUATIONS HAVE CONVERGED

 ITERATION SUMMARY FOR THE INCREMENT:   1 TOTAL ITERATIONS, OF WHICH
   0 ARE SEVERE DISCONTINUITY ITERATIONS AND  1 ARE EQUILIBRIUM ITERATIONS.

 TIME INCREMENT COMPLETED  1.000E+04,  FRACTION OF STEP COMPLETED  0.988    
 STEP TIME COMPLETED       9.880E+06,  TOTAL TIME COMPLETED        9.880E+06


  INCREMENT   989 STARTS. ATTEMPT NUMBER  1, TIME INCREMENT  1.000E+04
 
	UNSYMMETRIC NEW DIRECT SPARSE SOLVER RUNNING ON
 	1 HOST x 1 MPI RANK PER HOST x 8 THREADS PER RANK
        NUMBER OF EQUATIONS:  131150
        NUMBER OF RHS:        1
        NUMBER OF FLOPS:      2.469e+11
        SOLVER ELAPSED TIME:  1.4s

               CONVERGENCE CHECKS FOR EQUILIBRIUM ITERATION     1


 AVERAGE FORCE                      3.130E-04   TIME AVG. FORCE       7.234E-04
 LARGEST SCALED RESIDUAL FORCE     -4.482E-09   AT NODE      15574   DOF  3
   INSTANCE: PLATE-1                                                                         
  CORRESPONDING RESIDUAL FORCE     -4.482E-09
 LARGEST INCREMENT OF DISP.        -1.265E-08   AT NODE       7147   DOF  1
   INSTANCE: PLATE-1                                                                         
 LARGEST CORRECTION TO DISP.        3.054E-11   AT NODE       7593   DOF  1
   INSTANCE: PLATE-1                                                                         
          THE FORCE     EQUILIBRIUM EQUATIONS HAVE CONVERGED

 AVERAGE HEAT FLUX                  6.450E-02   TIME AVG. HEAT FLUX   5.758E-02
 LARGEST RESIDUAL HEAT FLUX         2.866E-08   AT NODE       1436   DOF 12
   INSTANCE: PLATE-1                                                                         
 LARGEST INCREMENT OF TEMP.        -2.979E-03   AT NODE      16148   DOF 11
   INSTANCE: PLATE-1                                                                         
 LARGEST CORRECTION TO TEMP.       -8.046E-06   AT NODE      16179   DOF 11
   INSTANCE: PLATE-1                                                                         
          THE HEAT FLUX EQUILIBRIUM EQUATIONS HAVE CONVERGED

 ITERATION SUMMARY FOR THE INCREMENT:   1 TOTAL ITERATIONS, OF WHICH
   0 ARE SEVERE DISCONTINUITY ITERATIONS AND  1 ARE EQUILIBRIUM ITERATIONS.

 TIME INCREMENT COMPLETED  1.000E+04,  FRACTION OF STEP COMPLETED  0.989    
 STEP TIME COMPLETED       9.890E+06,  TOTAL TIME COMPLETED        9.890E+06


  INCREMENT   990 STARTS. ATTEMPT NUMBER  1, TIME INCREMENT  1.000E+04
 
	UNSYMMETRIC NEW DIRECT SPARSE SOLVER RUNNING ON
 	1 HOST x 1 MPI RANK PER HOST x 8 THREADS PER RANK
        NUMBER OF EQUATIONS:  131150
        NUMBER OF RHS:        1
        NUMBER OF FLOPS:      2.469e+11
        SOLVER ELAPSED TIME:  1.4s

               CONVERGENCE CHECKS FOR EQUILIBRIUM ITERATION     1


 AVERAGE FORCE                      3.124E-04   TIME AVG. FORCE       7.230E-04
 LARGEST SCALED RESIDUAL FORCE      4.246E-09   AT NODE      15901   DOF  2
   INSTANCE: PLATE-1                                                                         
  CORRESPONDING RESIDUAL FORCE      4.246E-09
 LARGEST INCREMENT OF DISP.        -1.267E-08   AT NODE       7147   DOF  1
   INSTANCE: PLATE-1                                                                         
 LARGEST CORRECTION TO DISP.        3.032E-11   AT NODE       7593   DOF  1
   INSTANCE: PLATE-1                                                                         
          THE FORCE     EQUILIBRIUM EQUATIONS HAVE CONVERGED

 AVERAGE HEAT FLUX                  6.446E-02   TIME AVG. HEAT FLUX   5.759E-02
 LARGEST RESIDUAL HEAT FLUX         3.072E-08   AT NODE        480   DOF 12
   INSTANCE: PLATE-1                                                                         
 LARGEST INCREMENT OF TEMP.        -2.973E-03   AT NODE      16148   DOF 11
   INSTANCE: PLATE-1                                                                         
 LARGEST CORRECTION TO TEMP.       -8.534E-06   AT NODE      18553   DOF 11
   INSTANCE: PLATE-1                                                                         
          THE HEAT FLUX EQUILIBRIUM EQUATIONS HAVE CONVERGED

 ITERATION SUMMARY FOR THE INCREMENT:   1 TOTAL ITERATIONS, OF WHICH
   0 ARE SEVERE DISCONTINUITY ITERATIONS AND  1 ARE EQUILIBRIUM ITERATIONS.

 TIME INCREMENT COMPLETED  1.000E+04,  FRACTION OF STEP COMPLETED  0.990    
 STEP TIME COMPLETED       9.900E+06,  TOTAL TIME COMPLETED        9.900E+06


  INCREMENT   991 STARTS. ATTEMPT NUMBER  1, TIME INCREMENT  1.000E+04
 
	UNSYMMETRIC NEW DIRECT SPARSE SOLVER RUNNING ON
 	1 HOST x 1 MPI RANK PER HOST x 8 THREADS PER RANK
        NUMBER OF EQUATIONS:  131150
        NUMBER OF RHS:        1
        NUMBER OF FLOPS:      2.469e+11
        SOLVER ELAPSED TIME:  1.4s

               CONVERGENCE CHECKS FOR EQUILIBRIUM ITERATION     1


 AVERAGE FORCE                      3.118E-04   TIME AVG. FORCE       7.226E-04
 LARGEST SCALED RESIDUAL FORCE      5.985E-09   AT NODE       6515   DOF  3
   INSTANCE: PLATE-1                                                                         
  CORRESPONDING RESIDUAL FORCE      5.985E-09
 LARGEST INCREMENT OF DISP.        -1.269E-08   AT NODE       7147   DOF  1
   INSTANCE: PLATE-1                                                                         
 LARGEST CORRECTION TO DISP.        2.987E-11   AT NODE       7593   DOF  1
   INSTANCE: PLATE-1                                                                         
          THE FORCE     EQUILIBRIUM EQUATIONS HAVE CONVERGED

 AVERAGE HEAT FLUX                  6.442E-02   TIME AVG. HEAT FLUX   5.759E-02
 LARGEST RESIDUAL HEAT FLUX         2.975E-08   AT NODE        480   DOF 12
   INSTANCE: PLATE-1                                                                         
 LARGEST INCREMENT OF TEMP.        -2.968E-03   AT NODE      16148   DOF 11
   INSTANCE: PLATE-1                                                                         
 LARGEST CORRECTION TO TEMP.       -8.384E-06   AT NODE      16179   DOF 11
   INSTANCE: PLATE-1                                                                         
          THE HEAT FLUX EQUILIBRIUM EQUATIONS HAVE CONVERGED

 ITERATION SUMMARY FOR THE INCREMENT:   1 TOTAL ITERATIONS, OF WHICH
   0 ARE SEVERE DISCONTINUITY ITERATIONS AND  1 ARE EQUILIBRIUM ITERATIONS.

 TIME INCREMENT COMPLETED  1.000E+04,  FRACTION OF STEP COMPLETED  0.991    
 STEP TIME COMPLETED       9.910E+06,  TOTAL TIME COMPLETED        9.910E+06


  INCREMENT   992 STARTS. ATTEMPT NUMBER  1, TIME INCREMENT  1.000E+04
 
	UNSYMMETRIC NEW DIRECT SPARSE SOLVER RUNNING ON
 	1 HOST x 1 MPI RANK PER HOST x 8 THREADS PER RANK
        NUMBER OF EQUATIONS:  131150
        NUMBER OF RHS:        1
        NUMBER OF FLOPS:      2.469e+11
