1

   Abaqus 2023.HF4                                  Date 17-Sep-2024   Time 20:58:47
   For use by AALTO UNIVERSITY under license from Dassault Systemes or its subsidiary.

                                                                                 
                                                                                 
 STEP    1     INCREMENT     1     STEP TIME    0.00    


                        S T E P       1     C O U P L E D - T E M P E R A T U R E - D I S P L A C E M E N T   A N A L Y S I S


                                                                                          

          FIXED TIME INCREMENTS
          TIME INCREMENT IS                                    1.000E+04
          TIME PERIOD IS                                       1.000E+07

          CREEP AND SWELLING EFFECTS ARE OMITTED IN THIS STEP
          THE RATE DEPENDENCY WILL BE CONSIDERED IN THIS STEP

          CREEP AND SWELLING EFFECTS WILL BE IGNORED.

 CONVERGENCE TOLERANCE PARAMETERS FOR FORCE    
     CRITERION FOR RESIDUAL FORCE     FOR A NONLINEAR PROBLEM          5.000E-03
     CRITERION FOR DISP.    CORRECTION IN A NONLINEAR PROBLEM          1.000E-02
     INITIAL VALUE OF TIME AVERAGE FORCE                               1.000E-02
     AVERAGE FORCE     IS TIME AVERAGE FORCE    
     ALTERNATE CRIT. FOR RESIDUAL FORCE     FOR A NONLINEAR PROBLEM    2.000E-02
     CRITERION FOR ZERO FORCE     RELATIVE TO TIME AVRG. FORCE         1.000E-05
     CRITERION FOR RESIDUAL FORCE     WHEN THERE IS ZERO FLUX          1.000E-05
     CRITERION FOR DISP.    CORRECTION WHEN THERE IS ZERO FLUX         1.000E-03
     CRITERION FOR RESIDUAL FORCE     FOR A LINEAR INCREMENT           1.000E-08
     FIELD CONVERSION RATIO                                             1.00    
     CRITERION FOR ZERO FORCE     REL. TO TIME AVRG. MAX. FORCE        1.000E-05
     CRITERION FOR ZERO DISP.    RELATIVE TO CHARACTERISTIC LENGTH     1.000E-08

 CONVERGENCE TOLERANCE PARAMETERS FOR HEAT FLUX
     CRITERION FOR RESIDUAL HEAT FLUX FOR A NONLINEAR PROBLEM          5.000E-03
     CRITERION FOR TEMP.    CORRECTION IN A NONLINEAR PROBLEM          1.000E-02
     INITIAL VALUE OF TIME AVERAGE HEAT FLUX                           1.000E-02
     AVERAGE HEAT FLUX IS TIME AVERAGE HEAT FLUX
     ALTERNATE CRIT. FOR RESIDUAL HEAT FLUX FOR A NONLINEAR PROBLEM    2.000E-02
     CRITERION FOR ZERO HEAT FLUX RELATIVE TO TIME AVRG. HEAT FLUX     1.000E-05
     CRITERION FOR RESIDUAL HEAT FLUX WHEN THERE IS ZERO FLUX          1.000E-05
     CRITERION FOR TEMP.    CORRECTION WHEN THERE IS ZERO FLUX         1.000E-03
     CRITERION FOR RESIDUAL HEAT FLUX FOR A LINEAR INCREMENT           1.000E-08
     FIELD CONVERSION RATIO                                             1.00    
     CRITERION FOR ZERO HEAT FLUX REL. TO TIME AVRG. MAX. HEAT FLUX    1.000E-05

     VOLUMETRIC STRAIN COMPATIBILITY TOLERANCE FOR HYBRID SOLIDS       1.000E-05
     AXIAL STRAIN COMPATIBILITY TOLERANCE FOR HYBRID BEAMS             1.000E-05
     TRANS. SHEAR STRAIN COMPATIBILITY TOLERANCE FOR HYBRID BEAMS      1.000E-05
     SOFT CONTACT CONSTRAINT COMPATIBILITY TOLERANCE FOR P>P0          5.000E-03
     SOFT CONTACT CONSTRAINT COMPATIBILITY TOLERANCE FOR P=0.0         0.100    
     CONTACT FORCE ERROR TOLERANCE FOR CONVERT SDI=YES                 1.00    
     DISPLACEMENT COMPATIBILITY TOLERANCE FOR DCOUP ELEMENTS           1.000E-05
     ROTATION COMPATIBILITY TOLERANCE FOR DCOUP ELEMENTS               1.000E-05

 EQUILIBRIUM WILL BE CHECKED FOR SEVERE DISCONTINUITY ITERATIONS

 ITERATION CONTROL PARAMETERS:
     FIRST EQUILIBRIUM ITERATION FOR CONSECUTIVE DIVERGENCE CHECK              4
     EQUILIBRIUM ITERATION AFTER WHICH ALTERNATE RESIDUAL IS USED              9
     MAXIMUM EQUILIBRIUM ITERATIONS ALLOWED                                   16
     MAXIMUM ITERATIONS FOR SEVERE DISCONTINUITIES                            12
     GLOBAL STABILIZATION CONTROL IS NOT USED

          PRINT OF INCREMENT NUMBER, TIME, ETC., EVERY    1  INCREMENTS

     THE MAXIMUM NUMBER OF INCREMENTS IN THIS STEP IS                 1000000

          LARGE DISPLACEMENT THEORY WILL BE USED

          UNSYMMETRIC MATRIX STORAGE AND SOLUTION WILL BE USED

     LINEAR EXTRAPOLATION WILL BE USED

     CHARACTERISTIC ELEMENT LENGTH     8.915E-06

     DETAILS REGARDING ACTUAL SOLUTION WAVEFRONT REQUESTED

     DETAILED OUTPUT OF DIAGNOSTICS TO DATABASE REQUESTED

     PRINT OF INCREMENT NUMBER, TIME, ETC., TO THE MESSAGE FILE EVERY     1  INCREMENTS

     ELEMENT OPERATIONS WILL BE CARRIED OUT IN PARALLEL USING   8 THREADS ON 1 DOMAIN

     PARALLEL CONTACT TRACKING ENABLED


     COLLECTING MODEL CONSTRAINT INFORMATION FOR OVERCONSTRAINT CHECKS

     COLLECTING STEP CONSTRAINT INFORMATION FOR OVERCONSTRAINT CHECKS


  INCREMENT     1 STARTS. ATTEMPT NUMBER  1, TIME INCREMENT  1.000E+04
 
     INITIAL ELEMENT LOAD BALANCE
            DOMAIN    1     THREAD    NUMBER OF ELEMENTS
                              1            4976
                              2            5336
                              3            5104
                              4            5024
                              5            5416
                              6            5024
                              7            5216
                              8            5096
 
	UNSYMMETRIC NEW DIRECT SPARSE SOLVER RUNNING ON
 	1 HOST x 1 MPI RANK PER HOST x 8 THREADS PER RANK
        NUMBER OF EQUATIONS:  131150
        NUMBER OF RHS:        1
        NUMBER OF FLOPS:      2.469e+11
        SOLVER ELAPSED TIME:  1.3s

               CONVERGENCE CHECKS FOR EQUILIBRIUM ITERATION     1


 AVERAGE FORCE                      4.223E-06   TIME AVG. FORCE       4.223E-06
 LARGEST SCALED RESIDUAL FORCE      6.339E-16   AT NODE      24176   DOF  2
   INSTANCE: PLATE-1                                                                         
  CORRESPONDING RESIDUAL FORCE      6.339E-16
 LARGEST INCREMENT OF DISP.         1.064E-08   AT NODE        960   DOF  2
   INSTANCE: PLATE-1                                                                         
 LARGEST CORRECTION TO DISP.        1.064E-08   AT NODE        960   DOF  2
   INSTANCE: PLATE-1                                                                         
          THE FORCE     EQUILIBRIUM RESPONSE WAS LINEAR IN THIS INCREMENT

 AVERAGE HEAT FLUX                  2.277E-21   TIME AVG. HEAT FLUX   1.000E-02
 LARGEST RESIDUAL HEAT FLUX        -2.165E-19   AT NODE       3601   DOF 11
   INSTANCE: PLATE-1                                                                         
 LARGEST INCREMENT OF TEMP.        -3.227E-14   AT NODE       2001   DOF 11
   INSTANCE: PLATE-1                                                                         
 LARGEST CORRECTION TO TEMP.       -3.227E-14   AT NODE       2001   DOF 11
   INSTANCE: PLATE-1                                                                         
          THERE IS ZERO HEAT FLUX EVERYWHERE
 

 ***WARNING: THERE IS ZERO HEAT FLUX EVERYWHERE IN THE MODEL BASED ON THE 
             DEFAULT CRITERION. PLEASE CHECK THE VALUE OF THE AVERAGE HEAT FLUX 
             DURING THE CURRENT ITERATION TO VERIFY THAT THE HEAT FLUX IS SMALL 
             ENOUGH TO BE TREATED AS ZERO. IF NOT, PLEASE USE THE SOLUTION 
             CONTROLS TO RESET THE CRITERION FOR ZERO HEAT FLUX.

 ITERATION SUMMARY FOR THE INCREMENT:   1 TOTAL ITERATIONS, OF WHICH
   0 ARE SEVERE DISCONTINUITY ITERATIONS AND  1 ARE EQUILIBRIUM ITERATIONS.

 TIME INCREMENT COMPLETED  1.000E+04,  FRACTION OF STEP COMPLETED  1.000E-03
 STEP TIME COMPLETED       1.000E+04,  TOTAL TIME COMPLETED        1.000E+04


  INCREMENT     2 STARTS. ATTEMPT NUMBER  1, TIME INCREMENT  1.000E+04
 
	UNSYMMETRIC NEW DIRECT SPARSE SOLVER RUNNING ON
 	1 HOST x 1 MPI RANK PER HOST x 8 THREADS PER RANK
        NUMBER OF EQUATIONS:  131150
        NUMBER OF RHS:        1
        NUMBER OF FLOPS:      2.469e+11
        SOLVER ELAPSED TIME:  1.3s

               CONVERGENCE CHECKS FOR EQUILIBRIUM ITERATION     1


 AVERAGE FORCE                      1.724E-05   TIME AVG. FORCE       1.073E-05
 LARGEST SCALED RESIDUAL FORCE      5.613E-17   AT NODE      22121   DOF  2
   INSTANCE: PLATE-1                                                                         
  CORRESPONDING RESIDUAL FORCE      5.613E-17
 LARGEST INCREMENT OF DISP.         1.064E-08   AT NODE        960   DOF  2
   INSTANCE: PLATE-1                                                                         
 LARGEST CORRECTION TO DISP.        3.109E-19   AT NODE        960   DOF  3
   INSTANCE: PLATE-1                                                                         
          THE FORCE     EQUILIBRIUM RESPONSE WAS LINEAR IN THIS INCREMENT

 AVERAGE HEAT FLUX                  7.082E-11   TIME AVG. HEAT FLUX   1.000E-02
 LARGEST RESIDUAL HEAT FLUX         1.475E-16   AT NODE        958   DOF 12
   INSTANCE: PLATE-1                                                                         
 LARGEST INCREMENT OF TEMP.         2.966E-02   AT NODE        958   DOF 11
   INSTANCE: PLATE-1                                                                         
 LARGEST CORRECTION TO TEMP.        2.966E-02   AT NODE        958   DOF 11
   INSTANCE: PLATE-1                                                                         
          THERE IS ZERO HEAT FLUX EVERYWHERE
 

 ***WARNING: THERE IS ZERO HEAT FLUX EVERYWHERE IN THE MODEL BASED ON THE 
             DEFAULT CRITERION. PLEASE CHECK THE VALUE OF THE AVERAGE HEAT FLUX 
             DURING THE CURRENT ITERATION TO VERIFY THAT THE HEAT FLUX IS SMALL 
             ENOUGH TO BE TREATED AS ZERO. IF NOT, PLEASE USE THE SOLUTION 
             CONTROLS TO RESET THE CRITERION FOR ZERO HEAT FLUX.

 ITERATION SUMMARY FOR THE INCREMENT:   1 TOTAL ITERATIONS, OF WHICH
   0 ARE SEVERE DISCONTINUITY ITERATIONS AND  1 ARE EQUILIBRIUM ITERATIONS.

 TIME INCREMENT COMPLETED  1.000E+04,  FRACTION OF STEP COMPLETED  2.000E-03
 STEP TIME COMPLETED       2.000E+04,  TOTAL TIME COMPLETED        2.000E+04


  INCREMENT     3 STARTS. ATTEMPT NUMBER  1, TIME INCREMENT  1.000E+04
 
	UNSYMMETRIC NEW DIRECT SPARSE SOLVER RUNNING ON
 	1 HOST x 1 MPI RANK PER HOST x 8 THREADS PER RANK
        NUMBER OF EQUATIONS:  131150
        NUMBER OF RHS:        1
        NUMBER OF FLOPS:      2.469e+11
        SOLVER ELAPSED TIME:  1.6s

               CONVERGENCE CHECKS FOR EQUILIBRIUM ITERATION     1


 AVERAGE FORCE                      2.586E-05   TIME AVG. FORCE       1.578E-05
 LARGEST SCALED RESIDUAL FORCE      5.678E-17   AT NODE        582   DOF  2
   INSTANCE: PLATE-1                                                                         
  CORRESPONDING RESIDUAL FORCE      5.678E-17
 LARGEST INCREMENT OF DISP.         1.064E-08   AT NODE        960   DOF  2
   INSTANCE: PLATE-1                                                                         
 LARGEST CORRECTION TO DISP.       -1.217E-14   AT NODE       3388   DOF  2
   INSTANCE: PLATE-1                                                                         
          THE FORCE     EQUILIBRIUM RESPONSE WAS LINEAR IN THIS INCREMENT

 AVERAGE HEAT FLUX                  1.417E-10   TIME AVG. HEAT FLUX   1.000E-02
 LARGEST RESIDUAL HEAT FLUX         8.484E-19   AT NODE        958   DOF 12
   INSTANCE: PLATE-1                                                                         
 LARGEST INCREMENT OF TEMP.         2.983E-02   AT NODE        958   DOF 11
   INSTANCE: PLATE-1                                                                         
 LARGEST CORRECTION TO TEMP.        1.718E-04   AT NODE        958   DOF 11
   INSTANCE: PLATE-1                                                                         
          THERE IS ZERO HEAT FLUX EVERYWHERE
 

 ***WARNING: THERE IS ZERO HEAT FLUX EVERYWHERE IN THE MODEL BASED ON THE 
             DEFAULT CRITERION. PLEASE CHECK THE VALUE OF THE AVERAGE HEAT FLUX 
             DURING THE CURRENT ITERATION TO VERIFY THAT THE HEAT FLUX IS SMALL 
             ENOUGH TO BE TREATED AS ZERO. IF NOT, PLEASE USE THE SOLUTION 
             CONTROLS TO RESET THE CRITERION FOR ZERO HEAT FLUX.

 ITERATION SUMMARY FOR THE INCREMENT:   1 TOTAL ITERATIONS, OF WHICH
   0 ARE SEVERE DISCONTINUITY ITERATIONS AND  1 ARE EQUILIBRIUM ITERATIONS.

 TIME INCREMENT COMPLETED  1.000E+04,  FRACTION OF STEP COMPLETED  3.000E-03
 STEP TIME COMPLETED       3.000E+04,  TOTAL TIME COMPLETED        3.000E+04


  INCREMENT     4 STARTS. ATTEMPT NUMBER  1, TIME INCREMENT  1.000E+04
 
	UNSYMMETRIC NEW DIRECT SPARSE SOLVER RUNNING ON
 	1 HOST x 1 MPI RANK PER HOST x 8 THREADS PER RANK
        NUMBER OF EQUATIONS:  131150
        NUMBER OF RHS:        1
        NUMBER OF FLOPS:      2.469e+11
        SOLVER ELAPSED TIME:  1.4s

               CONVERGENCE CHECKS FOR EQUILIBRIUM ITERATION     1


 AVERAGE FORCE                      3.449E-05   TIME AVG. FORCE       2.045E-05
 LARGEST SCALED RESIDUAL FORCE     -6.589E-17   AT NODE       1145   DOF  2
   INSTANCE: PLATE-1                                                                         
  CORRESPONDING RESIDUAL FORCE     -6.589E-17
 LARGEST INCREMENT OF DISP.         1.064E-08   AT NODE        960   DOF  2
   INSTANCE: PLATE-1                                                                         
 LARGEST CORRECTION TO DISP.        8.104E-15   AT NODE       3388   DOF  2
   INSTANCE: PLATE-1                                                                         
          THE FORCE     EQUILIBRIUM RESPONSE WAS LINEAR IN THIS INCREMENT

 AVERAGE HEAT FLUX                  2.126E-10   TIME AVG. HEAT FLUX   1.000E-02
 LARGEST RESIDUAL HEAT FLUX         8.527E-19   AT NODE        958   DOF 12
   INSTANCE: PLATE-1                                                                         
 LARGEST INCREMENT OF TEMP.         3.000E-02   AT NODE        958   DOF 11
   INSTANCE: PLATE-1                                                                         
 LARGEST CORRECTION TO TEMP.        1.739E-04   AT NODE        958   DOF 11
   INSTANCE: PLATE-1                                                                         
          THERE IS ZERO HEAT FLUX EVERYWHERE
 

 ***WARNING: THERE IS ZERO HEAT FLUX EVERYWHERE IN THE MODEL BASED ON THE 
             DEFAULT CRITERION. PLEASE CHECK THE VALUE OF THE AVERAGE HEAT FLUX 
             DURING THE CURRENT ITERATION TO VERIFY THAT THE HEAT FLUX IS SMALL 
             ENOUGH TO BE TREATED AS ZERO. IF NOT, PLEASE USE THE SOLUTION 
             CONTROLS TO RESET THE CRITERION FOR ZERO HEAT FLUX.

 ITERATION SUMMARY FOR THE INCREMENT:   1 TOTAL ITERATIONS, OF WHICH
   0 ARE SEVERE DISCONTINUITY ITERATIONS AND  1 ARE EQUILIBRIUM ITERATIONS.

 TIME INCREMENT COMPLETED  1.000E+04,  FRACTION OF STEP COMPLETED  4.000E-03
 STEP TIME COMPLETED       4.000E+04,  TOTAL TIME COMPLETED        4.000E+04


  INCREMENT     5 STARTS. ATTEMPT NUMBER  1, TIME INCREMENT  1.000E+04
 
	UNSYMMETRIC NEW DIRECT SPARSE SOLVER RUNNING ON
 	1 HOST x 1 MPI RANK PER HOST x 8 THREADS PER RANK
        NUMBER OF EQUATIONS:  131150
        NUMBER OF RHS:        1
        NUMBER OF FLOPS:      2.469e+11
        SOLVER ELAPSED TIME:  1.3s

               CONVERGENCE CHECKS FOR EQUILIBRIUM ITERATION     1


 AVERAGE FORCE                      4.311E-05   TIME AVG. FORCE       2.498E-05
 LARGEST SCALED RESIDUAL FORCE      5.746E-17   AT NODE       1539   DOF  2
   INSTANCE: PLATE-1                                                                         
  CORRESPONDING RESIDUAL FORCE      5.746E-17
 LARGEST INCREMENT OF DISP.         1.064E-08   AT NODE        960   DOF  2
   INSTANCE: PLATE-1                                                                         
 LARGEST CORRECTION TO DISP.        1.106E-18   AT NODE      13373   DOF  2
   INSTANCE: PLATE-1                                                                         
          THE FORCE     EQUILIBRIUM RESPONSE WAS LINEAR IN THIS INCREMENT

 AVERAGE HEAT FLUX                  2.835E-10   TIME AVG. HEAT FLUX   1.000E-02
 LARGEST RESIDUAL HEAT FLUX         8.504E-19   AT NODE        958   DOF 12
   INSTANCE: PLATE-1                                                                         
 LARGEST INCREMENT OF TEMP.         3.018E-02   AT NODE        958   DOF 11
   INSTANCE: PLATE-1                                                                         
 LARGEST CORRECTION TO TEMP.        1.746E-04   AT NODE        958   DOF 11
   INSTANCE: PLATE-1                                                                         
          THERE IS ZERO HEAT FLUX EVERYWHERE
 

 ***WARNING: THERE IS ZERO HEAT FLUX EVERYWHERE IN THE MODEL BASED ON THE 
             DEFAULT CRITERION. PLEASE CHECK THE VALUE OF THE AVERAGE HEAT FLUX 
             DURING THE CURRENT ITERATION TO VERIFY THAT THE HEAT FLUX IS SMALL 
             ENOUGH TO BE TREATED AS ZERO. IF NOT, PLEASE USE THE SOLUTION 
             CONTROLS TO RESET THE CRITERION FOR ZERO HEAT FLUX.

 ITERATION SUMMARY FOR THE INCREMENT:   1 TOTAL ITERATIONS, OF WHICH
   0 ARE SEVERE DISCONTINUITY ITERATIONS AND  1 ARE EQUILIBRIUM ITERATIONS.

 TIME INCREMENT COMPLETED  1.000E+04,  FRACTION OF STEP COMPLETED  5.000E-03
 STEP TIME COMPLETED       5.000E+04,  TOTAL TIME COMPLETED        5.000E+04


  INCREMENT     6 STARTS. ATTEMPT NUMBER  1, TIME INCREMENT  1.000E+04
 
	UNSYMMETRIC NEW DIRECT SPARSE SOLVER RUNNING ON
 	1 HOST x 1 MPI RANK PER HOST x 8 THREADS PER RANK
        NUMBER OF EQUATIONS:  131150
        NUMBER OF RHS:        1
        NUMBER OF FLOPS:      2.469e+11
        SOLVER ELAPSED TIME:  1.4s

               CONVERGENCE CHECKS FOR EQUILIBRIUM ITERATION     1


 AVERAGE FORCE                      5.173E-05   TIME AVG. FORCE       2.944E-05
 LARGEST SCALED RESIDUAL FORCE      5.573E-17   AT NODE       1578   DOF  2
   INSTANCE: PLATE-1                                                                         
  CORRESPONDING RESIDUAL FORCE      5.573E-17
 LARGEST INCREMENT OF DISP.         1.064E-08   AT NODE        960   DOF  2
   INSTANCE: PLATE-1                                                                         
 LARGEST CORRECTION TO DISP.       -2.241E-18   AT NODE      13355   DOF  2
   INSTANCE: PLATE-1                                                                         
          THE FORCE     EQUILIBRIUM RESPONSE WAS LINEAR IN THIS INCREMENT

 AVERAGE HEAT FLUX                  3.544E-10   TIME AVG. HEAT FLUX   1.000E-02
 LARGEST RESIDUAL HEAT FLUX         8.513E-19   AT NODE        958   DOF 12
   INSTANCE: PLATE-1                                                                         
 LARGEST INCREMENT OF TEMP.         3.035E-02   AT NODE        958   DOF 11
   INSTANCE: PLATE-1                                                                         
 LARGEST CORRECTION TO TEMP.        1.760E-04   AT NODE        958   DOF 11
   INSTANCE: PLATE-1                                                                         
          THERE IS ZERO HEAT FLUX EVERYWHERE
 

 ***WARNING: THERE IS ZERO HEAT FLUX EVERYWHERE IN THE MODEL BASED ON THE 
             DEFAULT CRITERION. PLEASE CHECK THE VALUE OF THE AVERAGE HEAT FLUX 
             DURING THE CURRENT ITERATION TO VERIFY THAT THE HEAT FLUX IS SMALL 
             ENOUGH TO BE TREATED AS ZERO. IF NOT, PLEASE USE THE SOLUTION 
             CONTROLS TO RESET THE CRITERION FOR ZERO HEAT FLUX.

 ITERATION SUMMARY FOR THE INCREMENT:   1 TOTAL ITERATIONS, OF WHICH
   0 ARE SEVERE DISCONTINUITY ITERATIONS AND  1 ARE EQUILIBRIUM ITERATIONS.

 TIME INCREMENT COMPLETED  1.000E+04,  FRACTION OF STEP COMPLETED  6.000E-03
 STEP TIME COMPLETED       6.000E+04,  TOTAL TIME COMPLETED        6.000E+04


  INCREMENT     7 STARTS. ATTEMPT NUMBER  1, TIME INCREMENT  1.000E+04
 
	UNSYMMETRIC NEW DIRECT SPARSE SOLVER RUNNING ON
 	1 HOST x 1 MPI RANK PER HOST x 8 THREADS PER RANK
        NUMBER OF EQUATIONS:  131150
        NUMBER OF RHS:        1
        NUMBER OF FLOPS:      2.469e+11
        SOLVER ELAPSED TIME:  1.5s

               CONVERGENCE CHECKS FOR EQUILIBRIUM ITERATION     1


 AVERAGE FORCE                      6.035E-05   TIME AVG. FORCE       3.386E-05
 LARGEST SCALED RESIDUAL FORCE      6.547E-17   AT NODE       1149   DOF  2
   INSTANCE: PLATE-1                                                                         
  CORRESPONDING RESIDUAL FORCE      6.547E-17
 LARGEST INCREMENT OF DISP.         1.064E-08   AT NODE        960   DOF  2
   INSTANCE: PLATE-1                                                                         
 LARGEST CORRECTION TO DISP.       -2.310E-18   AT NODE      13124   DOF  2
   INSTANCE: PLATE-1                                                                         
          THE FORCE     EQUILIBRIUM RESPONSE WAS LINEAR IN THIS INCREMENT

 AVERAGE HEAT FLUX                  4.254E-10   TIME AVG. HEAT FLUX   1.000E-02
 LARGEST RESIDUAL HEAT FLUX         8.516E-19   AT NODE        958   DOF 12
   INSTANCE: PLATE-1                                                                         
 LARGEST INCREMENT OF TEMP.         3.053E-02   AT NODE        958   DOF 11
   INSTANCE: PLATE-1                                                                         
 LARGEST CORRECTION TO TEMP.        1.773E-04   AT NODE        958   DOF 11
   INSTANCE: PLATE-1                                                                         
          THERE IS ZERO HEAT FLUX EVERYWHERE
 

 ***WARNING: THERE IS ZERO HEAT FLUX EVERYWHERE IN THE MODEL BASED ON THE 
             DEFAULT CRITERION. PLEASE CHECK THE VALUE OF THE AVERAGE HEAT FLUX 
             DURING THE CURRENT ITERATION TO VERIFY THAT THE HEAT FLUX IS SMALL 
             ENOUGH TO BE TREATED AS ZERO. IF NOT, PLEASE USE THE SOLUTION 
             CONTROLS TO RESET THE CRITERION FOR ZERO HEAT FLUX.

 ITERATION SUMMARY FOR THE INCREMENT:   1 TOTAL ITERATIONS, OF WHICH
   0 ARE SEVERE DISCONTINUITY ITERATIONS AND  1 ARE EQUILIBRIUM ITERATIONS.

 TIME INCREMENT COMPLETED  1.000E+04,  FRACTION OF STEP COMPLETED  7.000E-03
 STEP TIME COMPLETED       7.000E+04,  TOTAL TIME COMPLETED        7.000E+04


  INCREMENT     8 STARTS. ATTEMPT NUMBER  1, TIME INCREMENT  1.000E+04
 
	UNSYMMETRIC NEW DIRECT SPARSE SOLVER RUNNING ON
 	1 HOST x 1 MPI RANK PER HOST x 8 THREADS PER RANK
        NUMBER OF EQUATIONS:  131150
        NUMBER OF RHS:        1
        NUMBER OF FLOPS:      2.469e+11
        SOLVER ELAPSED TIME:  1.5s

               CONVERGENCE CHECKS FOR EQUILIBRIUM ITERATION     1


 AVERAGE FORCE                      6.897E-05   TIME AVG. FORCE       3.825E-05
 LARGEST SCALED RESIDUAL FORCE      5.691E-17   AT NODE       1057   DOF  2
   INSTANCE: PLATE-1                                                                         
  CORRESPONDING RESIDUAL FORCE      5.691E-17
 LARGEST INCREMENT OF DISP.         1.064E-08   AT NODE        960   DOF  2
   INSTANCE: PLATE-1                                                                         
 LARGEST CORRECTION TO DISP.       -2.308E-18   AT NODE      13124   DOF  2
   INSTANCE: PLATE-1                                                                         
          THE FORCE     EQUILIBRIUM RESPONSE WAS LINEAR IN THIS INCREMENT

 AVERAGE HEAT FLUX                  4.964E-10   TIME AVG. HEAT FLUX   1.000E-02
 LARGEST RESIDUAL HEAT FLUX         8.519E-19   AT NODE        958   DOF 12
   INSTANCE: PLATE-1                                                                         
 LARGEST INCREMENT OF TEMP.         3.071E-02   AT NODE        958   DOF 11
   INSTANCE: PLATE-1                                                                         
 LARGEST CORRECTION TO TEMP.        1.786E-04   AT NODE        958   DOF 11
   INSTANCE: PLATE-1                                                                         
          THERE IS ZERO HEAT FLUX EVERYWHERE
 

 ***WARNING: THERE IS ZERO HEAT FLUX EVERYWHERE IN THE MODEL BASED ON THE 
             DEFAULT CRITERION. PLEASE CHECK THE VALUE OF THE AVERAGE HEAT FLUX 
             DURING THE CURRENT ITERATION TO VERIFY THAT THE HEAT FLUX IS SMALL 
             ENOUGH TO BE TREATED AS ZERO. IF NOT, PLEASE USE THE SOLUTION 
             CONTROLS TO RESET THE CRITERION FOR ZERO HEAT FLUX.

 ITERATION SUMMARY FOR THE INCREMENT:   1 TOTAL ITERATIONS, OF WHICH
   0 ARE SEVERE DISCONTINUITY ITERATIONS AND  1 ARE EQUILIBRIUM ITERATIONS.

 TIME INCREMENT COMPLETED  1.000E+04,  FRACTION OF STEP COMPLETED  8.000E-03
 STEP TIME COMPLETED       8.000E+04,  TOTAL TIME COMPLETED        8.000E+04


  INCREMENT     9 STARTS. ATTEMPT NUMBER  1, TIME INCREMENT  1.000E+04
 
	UNSYMMETRIC NEW DIRECT SPARSE SOLVER RUNNING ON
 	1 HOST x 1 MPI RANK PER HOST x 8 THREADS PER RANK
        NUMBER OF EQUATIONS:  131150
        NUMBER OF RHS:        1
        NUMBER OF FLOPS:      2.469e+11
        SOLVER ELAPSED TIME:  1.4s

               CONVERGENCE CHECKS FOR EQUILIBRIUM ITERATION     1


 AVERAGE FORCE                      7.759E-05   TIME AVG. FORCE       4.262E-05
 LARGEST SCALED RESIDUAL FORCE      5.615E-17   AT NODE       1105   DOF  2
   INSTANCE: PLATE-1                                                                         
  CORRESPONDING RESIDUAL FORCE      5.615E-17
 LARGEST INCREMENT OF DISP.         1.064E-08   AT NODE        960   DOF  2
   INSTANCE: PLATE-1                                                                         
 LARGEST CORRECTION TO DISP.       -2.306E-18   AT NODE      13124   DOF  2
   INSTANCE: PLATE-1                                                                         
          THE FORCE     EQUILIBRIUM RESPONSE WAS LINEAR IN THIS INCREMENT

 AVERAGE HEAT FLUX                  5.675E-10   TIME AVG. HEAT FLUX   1.000E-02
 LARGEST RESIDUAL HEAT FLUX         8.522E-19   AT NODE        958   DOF 12
   INSTANCE: PLATE-1                                                                         
 LARGEST INCREMENT OF TEMP.         3.089E-02   AT NODE        958   DOF 11
   INSTANCE: PLATE-1                                                                         
 LARGEST CORRECTION TO TEMP.        1.799E-04   AT NODE        958   DOF 11
   INSTANCE: PLATE-1                                                                         
          THERE IS ZERO HEAT FLUX EVERYWHERE
 

 ***WARNING: THERE IS ZERO HEAT FLUX EVERYWHERE IN THE MODEL BASED ON THE 
             DEFAULT CRITERION. PLEASE CHECK THE VALUE OF THE AVERAGE HEAT FLUX 
             DURING THE CURRENT ITERATION TO VERIFY THAT THE HEAT FLUX IS SMALL 
             ENOUGH TO BE TREATED AS ZERO. IF NOT, PLEASE USE THE SOLUTION 
             CONTROLS TO RESET THE CRITERION FOR ZERO HEAT FLUX.

 ITERATION SUMMARY FOR THE INCREMENT:   1 TOTAL ITERATIONS, OF WHICH
   0 ARE SEVERE DISCONTINUITY ITERATIONS AND  1 ARE EQUILIBRIUM ITERATIONS.

 TIME INCREMENT COMPLETED  1.000E+04,  FRACTION OF STEP COMPLETED  9.000E-03
 STEP TIME COMPLETED       9.000E+04,  TOTAL TIME COMPLETED        9.000E+04


  INCREMENT    10 STARTS. ATTEMPT NUMBER  1, TIME INCREMENT  1.000E+04
 
	UNSYMMETRIC NEW DIRECT SPARSE SOLVER RUNNING ON
 	1 HOST x 1 MPI RANK PER HOST x 8 THREADS PER RANK
        NUMBER OF EQUATIONS:  131150
        NUMBER OF RHS:        1
        NUMBER OF FLOPS:      2.469e+11
        SOLVER ELAPSED TIME:  1.4s

               CONVERGENCE CHECKS FOR EQUILIBRIUM ITERATION     1


 AVERAGE FORCE                      8.621E-05   TIME AVG. FORCE       4.698E-05
 LARGEST SCALED RESIDUAL FORCE     -6.275E-17   AT NODE        713   DOF  2
   INSTANCE: PLATE-1                                                                         
  CORRESPONDING RESIDUAL FORCE     -6.275E-17
 LARGEST INCREMENT OF DISP.         1.064E-08   AT NODE        960   DOF  2
   INSTANCE: PLATE-1                                                                         
 LARGEST CORRECTION TO DISP.       -2.305E-18   AT NODE      13124   DOF  2
   INSTANCE: PLATE-1                                                                         
          THE FORCE     EQUILIBRIUM RESPONSE WAS LINEAR IN THIS INCREMENT

 AVERAGE HEAT FLUX                  6.385E-10   TIME AVG. HEAT FLUX   1.000E-02
 LARGEST RESIDUAL HEAT FLUX         8.526E-19   AT NODE        958   DOF 12
   INSTANCE: PLATE-1                                                                         
 LARGEST INCREMENT OF TEMP.         3.107E-02   AT NODE        958   DOF 11
   INSTANCE: PLATE-1                                                                         
 LARGEST CORRECTION TO TEMP.        1.812E-04   AT NODE        958   DOF 11
   INSTANCE: PLATE-1                                                                         
          THERE IS ZERO HEAT FLUX EVERYWHERE
 

 ***WARNING: THERE IS ZERO HEAT FLUX EVERYWHERE IN THE MODEL BASED ON THE 
             DEFAULT CRITERION. PLEASE CHECK THE VALUE OF THE AVERAGE HEAT FLUX 
             DURING THE CURRENT ITERATION TO VERIFY THAT THE HEAT FLUX IS SMALL 
             ENOUGH TO BE TREATED AS ZERO. IF NOT, PLEASE USE THE SOLUTION 
             CONTROLS TO RESET THE CRITERION FOR ZERO HEAT FLUX.

 ITERATION SUMMARY FOR THE INCREMENT:   1 TOTAL ITERATIONS, OF WHICH
   0 ARE SEVERE DISCONTINUITY ITERATIONS AND  1 ARE EQUILIBRIUM ITERATIONS.

 TIME INCREMENT COMPLETED  1.000E+04,  FRACTION OF STEP COMPLETED  1.000E-02
 STEP TIME COMPLETED       1.000E+05,  TOTAL TIME COMPLETED        1.000E+05


  INCREMENT    11 STARTS. ATTEMPT NUMBER  1, TIME INCREMENT  1.000E+04
 
	UNSYMMETRIC NEW DIRECT SPARSE SOLVER RUNNING ON
 	1 HOST x 1 MPI RANK PER HOST x 8 THREADS PER RANK
        NUMBER OF EQUATIONS:  131150
        NUMBER OF RHS:        1
        NUMBER OF FLOPS:      2.469e+11
        SOLVER ELAPSED TIME:  1.4s

               CONVERGENCE CHECKS FOR EQUILIBRIUM ITERATION     1


 AVERAGE FORCE                      9.483E-05   TIME AVG. FORCE       5.133E-05
 LARGEST SCALED RESIDUAL FORCE      5.984E-17   AT NODE       1627   DOF  2
   INSTANCE: PLATE-1                                                                         
  CORRESPONDING RESIDUAL FORCE      5.984E-17
 LARGEST INCREMENT OF DISP.         1.064E-08   AT NODE        960   DOF  2
   INSTANCE: PLATE-1                                                                         
 LARGEST CORRECTION TO DISP.       -2.303E-18   AT NODE      13124   DOF  2
   INSTANCE: PLATE-1                                                                         
          THE FORCE     EQUILIBRIUM RESPONSE WAS LINEAR IN THIS INCREMENT

 AVERAGE HEAT FLUX                  7.096E-10   TIME AVG. HEAT FLUX   1.000E-02
 LARGEST RESIDUAL HEAT FLUX         8.529E-19   AT NODE        958   DOF 12
   INSTANCE: PLATE-1                                                                         
 LARGEST INCREMENT OF TEMP.         3.125E-02   AT NODE        958   DOF 11
   INSTANCE: PLATE-1                                                                         
 LARGEST CORRECTION TO TEMP.        1.825E-04   AT NODE        958   DOF 11
   INSTANCE: PLATE-1                                                                         
          THERE IS ZERO HEAT FLUX EVERYWHERE
 

 ***WARNING: THERE IS ZERO HEAT FLUX EVERYWHERE IN THE MODEL BASED ON THE 
             DEFAULT CRITERION. PLEASE CHECK THE VALUE OF THE AVERAGE HEAT FLUX 
             DURING THE CURRENT ITERATION TO VERIFY THAT THE HEAT FLUX IS SMALL 
             ENOUGH TO BE TREATED AS ZERO. IF NOT, PLEASE USE THE SOLUTION 
             CONTROLS TO RESET THE CRITERION FOR ZERO HEAT FLUX.

 ITERATION SUMMARY FOR THE INCREMENT:   1 TOTAL ITERATIONS, OF WHICH
   0 ARE SEVERE DISCONTINUITY ITERATIONS AND  1 ARE EQUILIBRIUM ITERATIONS.

 TIME INCREMENT COMPLETED  1.000E+04,  FRACTION OF STEP COMPLETED  1.100E-02
 STEP TIME COMPLETED       1.100E+05,  TOTAL TIME COMPLETED        1.100E+05


  INCREMENT    12 STARTS. ATTEMPT NUMBER  1, TIME INCREMENT  1.000E+04
 
	UNSYMMETRIC NEW DIRECT SPARSE SOLVER RUNNING ON
 	1 HOST x 1 MPI RANK PER HOST x 8 THREADS PER RANK
        NUMBER OF EQUATIONS:  131150
        NUMBER OF RHS:        1
        NUMBER OF FLOPS:      2.469e+11
        SOLVER ELAPSED TIME:  1.5s

               CONVERGENCE CHECKS FOR EQUILIBRIUM ITERATION     1


 AVERAGE FORCE                      1.035E-04   TIME AVG. FORCE       5.567E-05
 LARGEST SCALED RESIDUAL FORCE      7.017E-17   AT NODE        668   DOF  2
   INSTANCE: PLATE-1                                                                         
  CORRESPONDING RESIDUAL FORCE      7.017E-17
 LARGEST INCREMENT OF DISP.         1.064E-08   AT NODE        960   DOF  2
   INSTANCE: PLATE-1                                                                         
 LARGEST CORRECTION TO DISP.       -2.301E-18   AT NODE      13124   DOF  2
   INSTANCE: PLATE-1                                                                         
          THE FORCE     EQUILIBRIUM RESPONSE WAS LINEAR IN THIS INCREMENT

 AVERAGE HEAT FLUX                  7.808E-10   TIME AVG. HEAT FLUX   1.000E-02
 LARGEST RESIDUAL HEAT FLUX         8.532E-19   AT NODE        958   DOF 12
   INSTANCE: PLATE-1                                                                         
 LARGEST INCREMENT OF TEMP.         3.144E-02   AT NODE        958   DOF 11
   INSTANCE: PLATE-1                                                                         
 LARGEST CORRECTION TO TEMP.        1.839E-04   AT NODE        958   DOF 11
   INSTANCE: PLATE-1                                                                         
          THERE IS ZERO HEAT FLUX EVERYWHERE
 

 ***WARNING: THERE IS ZERO HEAT FLUX EVERYWHERE IN THE MODEL BASED ON THE 
             DEFAULT CRITERION. PLEASE CHECK THE VALUE OF THE AVERAGE HEAT FLUX 
             DURING THE CURRENT ITERATION TO VERIFY THAT THE HEAT FLUX IS SMALL 
             ENOUGH TO BE TREATED AS ZERO. IF NOT, PLEASE USE THE SOLUTION 
             CONTROLS TO RESET THE CRITERION FOR ZERO HEAT FLUX.

 ITERATION SUMMARY FOR THE INCREMENT:   1 TOTAL ITERATIONS, OF WHICH
   0 ARE SEVERE DISCONTINUITY ITERATIONS AND  1 ARE EQUILIBRIUM ITERATIONS.

 TIME INCREMENT COMPLETED  1.000E+04,  FRACTION OF STEP COMPLETED  1.200E-02
 STEP TIME COMPLETED       1.200E+05,  TOTAL TIME COMPLETED        1.200E+05


  INCREMENT    13 STARTS. ATTEMPT NUMBER  1, TIME INCREMENT  1.000E+04
 
	UNSYMMETRIC NEW DIRECT SPARSE SOLVER RUNNING ON
 	1 HOST x 1 MPI RANK PER HOST x 8 THREADS PER RANK
        NUMBER OF EQUATIONS:  131150
        NUMBER OF RHS:        1
        NUMBER OF FLOPS:      2.469e+11
        SOLVER ELAPSED TIME:  1.3s

               CONVERGENCE CHECKS FOR EQUILIBRIUM ITERATION     1


 AVERAGE FORCE                      1.121E-04   TIME AVG. FORCE       6.001E-05
 LARGEST SCALED RESIDUAL FORCE      7.446E-17   AT NODE       1570   DOF  2
   INSTANCE: PLATE-1                                                                         
  CORRESPONDING RESIDUAL FORCE      7.446E-17
 LARGEST INCREMENT OF DISP.         1.064E-08   AT NODE        960   DOF  2
   INSTANCE: PLATE-1                                                                         
 LARGEST CORRECTION TO DISP.       -2.299E-18   AT NODE      13124   DOF  2
   INSTANCE: PLATE-1                                                                         
          THE FORCE     EQUILIBRIUM RESPONSE WAS LINEAR IN THIS INCREMENT

 AVERAGE HEAT FLUX                  8.519E-10   TIME AVG. HEAT FLUX   1.000E-02
 LARGEST RESIDUAL HEAT FLUX         8.535E-19   AT NODE        958   DOF 12
   INSTANCE: PLATE-1                                                                         
 LARGEST INCREMENT OF TEMP.         3.162E-02   AT NODE        958   DOF 11
   INSTANCE: PLATE-1                                                                         
 LARGEST CORRECTION TO TEMP.        1.852E-04   AT NODE        958   DOF 11
   INSTANCE: PLATE-1                                                                         
          THERE IS ZERO HEAT FLUX EVERYWHERE
 

 ***WARNING: THERE IS ZERO HEAT FLUX EVERYWHERE IN THE MODEL BASED ON THE 
             DEFAULT CRITERION. PLEASE CHECK THE VALUE OF THE AVERAGE HEAT FLUX 
             DURING THE CURRENT ITERATION TO VERIFY THAT THE HEAT FLUX IS SMALL 
             ENOUGH TO BE TREATED AS ZERO. IF NOT, PLEASE USE THE SOLUTION 
             CONTROLS TO RESET THE CRITERION FOR ZERO HEAT FLUX.

 ITERATION SUMMARY FOR THE INCREMENT:   1 TOTAL ITERATIONS, OF WHICH
   0 ARE SEVERE DISCONTINUITY ITERATIONS AND  1 ARE EQUILIBRIUM ITERATIONS.

 TIME INCREMENT COMPLETED  1.000E+04,  FRACTION OF STEP COMPLETED  1.300E-02
 STEP TIME COMPLETED       1.300E+05,  TOTAL TIME COMPLETED        1.300E+05


  INCREMENT    14 STARTS. ATTEMPT NUMBER  1, TIME INCREMENT  1.000E+04
 
	UNSYMMETRIC NEW DIRECT SPARSE SOLVER RUNNING ON
 	1 HOST x 1 MPI RANK PER HOST x 8 THREADS PER RANK
        NUMBER OF EQUATIONS:  131150
        NUMBER OF RHS:        1
        NUMBER OF FLOPS:      2.469e+11
        SOLVER ELAPSED TIME:  1.4s

               CONVERGENCE CHECKS FOR EQUILIBRIUM ITERATION     1


 AVERAGE FORCE                      1.207E-04   TIME AVG. FORCE       6.435E-05
 LARGEST SCALED RESIDUAL FORCE      6.475E-17   AT NODE       1418   DOF  2
   INSTANCE: PLATE-1                                                                         
  CORRESPONDING RESIDUAL FORCE      6.475E-17
 LARGEST INCREMENT OF DISP.         1.064E-08   AT NODE        960   DOF  2
   INSTANCE: PLATE-1                                                                         
 LARGEST CORRECTION TO DISP.       -2.297E-18   AT NODE      13124   DOF  2
   INSTANCE: PLATE-1                                                                         
          THE FORCE     EQUILIBRIUM RESPONSE WAS LINEAR IN THIS INCREMENT

 AVERAGE HEAT FLUX                  9.231E-10   TIME AVG. HEAT FLUX   1.000E-02
 LARGEST RESIDUAL HEAT FLUX         8.539E-19   AT NODE        958   DOF 12
   INSTANCE: PLATE-1                                                                         
 LARGEST INCREMENT OF TEMP.         3.181E-02   AT NODE        958   DOF 11
   INSTANCE: PLATE-1                                                                         
 LARGEST CORRECTION TO TEMP.        1.866E-04   AT NODE        958   DOF 11
   INSTANCE: PLATE-1                                                                         
          THERE IS ZERO HEAT FLUX EVERYWHERE
 

 ***WARNING: THERE IS ZERO HEAT FLUX EVERYWHERE IN THE MODEL BASED ON THE 
             DEFAULT CRITERION. PLEASE CHECK THE VALUE OF THE AVERAGE HEAT FLUX 
             DURING THE CURRENT ITERATION TO VERIFY THAT THE HEAT FLUX IS SMALL 
             ENOUGH TO BE TREATED AS ZERO. IF NOT, PLEASE USE THE SOLUTION 
             CONTROLS TO RESET THE CRITERION FOR ZERO HEAT FLUX.

 ITERATION SUMMARY FOR THE INCREMENT:   1 TOTAL ITERATIONS, OF WHICH
   0 ARE SEVERE DISCONTINUITY ITERATIONS AND  1 ARE EQUILIBRIUM ITERATIONS.

 TIME INCREMENT COMPLETED  1.000E+04,  FRACTION OF STEP COMPLETED  1.400E-02
 STEP TIME COMPLETED       1.400E+05,  TOTAL TIME COMPLETED        1.400E+05


  INCREMENT    15 STARTS. ATTEMPT NUMBER  1, TIME INCREMENT  1.000E+04
 
	UNSYMMETRIC NEW DIRECT SPARSE SOLVER RUNNING ON
 	1 HOST x 1 MPI RANK PER HOST x 8 THREADS PER RANK
        NUMBER OF EQUATIONS:  131150
        NUMBER OF RHS:        1
        NUMBER OF FLOPS:      2.469e+11
        SOLVER ELAPSED TIME:  1.3s

               CONVERGENCE CHECKS FOR EQUILIBRIUM ITERATION     1


 AVERAGE FORCE                      1.293E-04   TIME AVG. FORCE       6.868E-05
 LARGEST SCALED RESIDUAL FORCE      7.150E-17   AT NODE        590   DOF  2
   INSTANCE: PLATE-1                                                                         
  CORRESPONDING RESIDUAL FORCE      7.150E-17
 LARGEST INCREMENT OF DISP.         1.064E-08   AT NODE        960   DOF  2
   INSTANCE: PLATE-1                                                                         
 LARGEST CORRECTION TO DISP.       -2.296E-18   AT NODE      13124   DOF  2
   INSTANCE: PLATE-1                                                                         
          THE FORCE     EQUILIBRIUM RESPONSE WAS LINEAR IN THIS INCREMENT

 AVERAGE HEAT FLUX                  9.943E-10   TIME AVG. HEAT FLUX   1.000E-02
 LARGEST RESIDUAL HEAT FLUX         8.542E-19   AT NODE        958   DOF 12
   INSTANCE: PLATE-1                                                                         
 LARGEST INCREMENT OF TEMP.         3.200E-02   AT NODE        958   DOF 11
   INSTANCE: PLATE-1                                                                         
 LARGEST CORRECTION TO TEMP.        1.880E-04   AT NODE        958   DOF 11
   INSTANCE: PLATE-1                                                                         
          THERE IS ZERO HEAT FLUX EVERYWHERE
 

 ***WARNING: THERE IS ZERO HEAT FLUX EVERYWHERE IN THE MODEL BASED ON THE 
             DEFAULT CRITERION. PLEASE CHECK THE VALUE OF THE AVERAGE HEAT FLUX 
             DURING THE CURRENT ITERATION TO VERIFY THAT THE HEAT FLUX IS SMALL 
             ENOUGH TO BE TREATED AS ZERO. IF NOT, PLEASE USE THE SOLUTION 
             CONTROLS TO RESET THE CRITERION FOR ZERO HEAT FLUX.

 ITERATION SUMMARY FOR THE INCREMENT:   1 TOTAL ITERATIONS, OF WHICH
   0 ARE SEVERE DISCONTINUITY ITERATIONS AND  1 ARE EQUILIBRIUM ITERATIONS.

 TIME INCREMENT COMPLETED  1.000E+04,  FRACTION OF STEP COMPLETED  1.500E-02
 STEP TIME COMPLETED       1.500E+05,  TOTAL TIME COMPLETED        1.500E+05


  INCREMENT    16 STARTS. ATTEMPT NUMBER  1, TIME INCREMENT  1.000E+04
 
	UNSYMMETRIC NEW DIRECT SPARSE SOLVER RUNNING ON
 	1 HOST x 1 MPI RANK PER HOST x 8 THREADS PER RANK
        NUMBER OF EQUATIONS:  131150
        NUMBER OF RHS:        1
        NUMBER OF FLOPS:      2.469e+11
        SOLVER ELAPSED TIME:  1.3s

               CONVERGENCE CHECKS FOR EQUILIBRIUM ITERATION     1


 AVERAGE FORCE                      1.379E-04   TIME AVG. FORCE       7.301E-05
 LARGEST SCALED RESIDUAL FORCE     -6.357E-17   AT NODE       1149   DOF  2
   INSTANCE: PLATE-1                                                                         
  CORRESPONDING RESIDUAL FORCE     -6.357E-17
 LARGEST INCREMENT OF DISP.         1.064E-08   AT NODE        960   DOF  2
   INSTANCE: PLATE-1                                                                         
 LARGEST CORRECTION TO DISP.       -2.294E-18   AT NODE      13124   DOF  2
   INSTANCE: PLATE-1                                                                         
          THE FORCE     EQUILIBRIUM RESPONSE WAS LINEAR IN THIS INCREMENT

 AVERAGE HEAT FLUX                  1.066E-09   TIME AVG. HEAT FLUX   1.000E-02
 LARGEST RESIDUAL HEAT FLUX         8.546E-19   AT NODE        958   DOF 12
   INSTANCE: PLATE-1                                                                         
 LARGEST INCREMENT OF TEMP.         3.219E-02   AT NODE        958   DOF 11
   INSTANCE: PLATE-1                                                                         
 LARGEST CORRECTION TO TEMP.        1.894E-04   AT NODE        958   DOF 11
   INSTANCE: PLATE-1                                                                         
          THERE IS ZERO HEAT FLUX EVERYWHERE
 

 ***WARNING: THERE IS ZERO HEAT FLUX EVERYWHERE IN THE MODEL BASED ON THE 
             DEFAULT CRITERION. PLEASE CHECK THE VALUE OF THE AVERAGE HEAT FLUX 
             DURING THE CURRENT ITERATION TO VERIFY THAT THE HEAT FLUX IS SMALL 
             ENOUGH TO BE TREATED AS ZERO. IF NOT, PLEASE USE THE SOLUTION 
             CONTROLS TO RESET THE CRITERION FOR ZERO HEAT FLUX.

 ITERATION SUMMARY FOR THE INCREMENT:   1 TOTAL ITERATIONS, OF WHICH
   0 ARE SEVERE DISCONTINUITY ITERATIONS AND  1 ARE EQUILIBRIUM ITERATIONS.

 TIME INCREMENT COMPLETED  1.000E+04,  FRACTION OF STEP COMPLETED  1.600E-02
 STEP TIME COMPLETED       1.600E+05,  TOTAL TIME COMPLETED        1.600E+05


  INCREMENT    17 STARTS. ATTEMPT NUMBER  1, TIME INCREMENT  1.000E+04
 
	UNSYMMETRIC NEW DIRECT SPARSE SOLVER RUNNING ON
 	1 HOST x 1 MPI RANK PER HOST x 8 THREADS PER RANK
        NUMBER OF EQUATIONS:  131150
        NUMBER OF RHS:        1
        NUMBER OF FLOPS:      2.469e+11
        SOLVER ELAPSED TIME:  1.3s

               CONVERGENCE CHECKS FOR EQUILIBRIUM ITERATION     1


 AVERAGE FORCE                      1.466E-04   TIME AVG. FORCE       7.733E-05
 LARGEST SCALED RESIDUAL FORCE     -6.928E-17   AT NODE       1896   DOF  2
   INSTANCE: PLATE-1                                                                         
  CORRESPONDING RESIDUAL FORCE     -6.928E-17
 LARGEST INCREMENT OF DISP.         1.064E-08   AT NODE        960   DOF  2
   INSTANCE: PLATE-1                                                                         
 LARGEST CORRECTION TO DISP.       -2.292E-18   AT NODE      13124   DOF  2
   INSTANCE: PLATE-1                                                                         
          THE FORCE     EQUILIBRIUM RESPONSE WAS LINEAR IN THIS INCREMENT

 AVERAGE HEAT FLUX                  1.137E-09   TIME AVG. HEAT FLUX   1.000E-02
 LARGEST RESIDUAL HEAT FLUX         8.549E-19   AT NODE        958   DOF 12
   INSTANCE: PLATE-1                                                                         
 LARGEST INCREMENT OF TEMP.         3.238E-02   AT NODE        958   DOF 11
   INSTANCE: PLATE-1                                                                         
 LARGEST CORRECTION TO TEMP.        1.908E-04   AT NODE        958   DOF 11
   INSTANCE: PLATE-1                                                                         
          THERE IS ZERO HEAT FLUX EVERYWHERE
 

 ***WARNING: THERE IS ZERO HEAT FLUX EVERYWHERE IN THE MODEL BASED ON THE 
             DEFAULT CRITERION. PLEASE CHECK THE VALUE OF THE AVERAGE HEAT FLUX 
             DURING THE CURRENT ITERATION TO VERIFY THAT THE HEAT FLUX IS SMALL 
             ENOUGH TO BE TREATED AS ZERO. IF NOT, PLEASE USE THE SOLUTION 
             CONTROLS TO RESET THE CRITERION FOR ZERO HEAT FLUX.

 ITERATION SUMMARY FOR THE INCREMENT:   1 TOTAL ITERATIONS, OF WHICH
   0 ARE SEVERE DISCONTINUITY ITERATIONS AND  1 ARE EQUILIBRIUM ITERATIONS.

 TIME INCREMENT COMPLETED  1.000E+04,  FRACTION OF STEP COMPLETED  1.700E-02
 STEP TIME COMPLETED       1.700E+05,  TOTAL TIME COMPLETED        1.700E+05


  INCREMENT    18 STARTS. ATTEMPT NUMBER  1, TIME INCREMENT  1.000E+04
 
	UNSYMMETRIC NEW DIRECT SPARSE SOLVER RUNNING ON
 	1 HOST x 1 MPI RANK PER HOST x 8 THREADS PER RANK
        NUMBER OF EQUATIONS:  131150
        NUMBER OF RHS:        1
        NUMBER OF FLOPS:      2.469e+11
        SOLVER ELAPSED TIME:  1.3s

               CONVERGENCE CHECKS FOR EQUILIBRIUM ITERATION     1


 AVERAGE FORCE                      1.552E-04   TIME AVG. FORCE       8.166E-05
 LARGEST SCALED RESIDUAL FORCE      5.261E-17   AT NODE       1581   DOF  2
   INSTANCE: PLATE-1                                                                         
  CORRESPONDING RESIDUAL FORCE      5.261E-17
 LARGEST INCREMENT OF DISP.         1.064E-08   AT NODE        960   DOF  2
   INSTANCE: PLATE-1                                                                         
 LARGEST CORRECTION TO DISP.       -2.290E-18   AT NODE      13124   DOF  2
   INSTANCE: PLATE-1                                                                         
          THE FORCE     EQUILIBRIUM RESPONSE WAS LINEAR IN THIS INCREMENT

 AVERAGE HEAT FLUX                  1.208E-09   TIME AVG. HEAT FLUX   1.000E-02
 LARGEST RESIDUAL HEAT FLUX         8.552E-19   AT NODE        958   DOF 12
   INSTANCE: PLATE-1                                                                         
 LARGEST INCREMENT OF TEMP.         3.257E-02   AT NODE        958   DOF 11
   INSTANCE: PLATE-1                                                                         
 LARGEST CORRECTION TO TEMP.        1.922E-04   AT NODE        958   DOF 11
   INSTANCE: PLATE-1                                                                         
          THERE IS ZERO HEAT FLUX EVERYWHERE
 

 ***WARNING: THERE IS ZERO HEAT FLUX EVERYWHERE IN THE MODEL BASED ON THE 
             DEFAULT CRITERION. PLEASE CHECK THE VALUE OF THE AVERAGE HEAT FLUX 
             DURING THE CURRENT ITERATION TO VERIFY THAT THE HEAT FLUX IS SMALL 
             ENOUGH TO BE TREATED AS ZERO. IF NOT, PLEASE USE THE SOLUTION 
             CONTROLS TO RESET THE CRITERION FOR ZERO HEAT FLUX.

 ITERATION SUMMARY FOR THE INCREMENT:   1 TOTAL ITERATIONS, OF WHICH
   0 ARE SEVERE DISCONTINUITY ITERATIONS AND  1 ARE EQUILIBRIUM ITERATIONS.

 TIME INCREMENT COMPLETED  1.000E+04,  FRACTION OF STEP COMPLETED  1.800E-02
 STEP TIME COMPLETED       1.800E+05,  TOTAL TIME COMPLETED        1.800E+05


  INCREMENT    19 STARTS. ATTEMPT NUMBER  1, TIME INCREMENT  1.000E+04
 
	UNSYMMETRIC NEW DIRECT SPARSE SOLVER RUNNING ON
 	1 HOST x 1 MPI RANK PER HOST x 8 THREADS PER RANK
        NUMBER OF EQUATIONS:  131150
        NUMBER OF RHS:        1
        NUMBER OF FLOPS:      2.469e+11
        SOLVER ELAPSED TIME:  1.3s

               CONVERGENCE CHECKS FOR EQUILIBRIUM ITERATION     1


 AVERAGE FORCE                      1.638E-04   TIME AVG. FORCE       8.598E-05
 LARGEST SCALED RESIDUAL FORCE     -5.979E-17   AT NODE       1093   DOF  2
   INSTANCE: PLATE-1                                                                         
  CORRESPONDING RESIDUAL FORCE     -5.979E-17
 LARGEST INCREMENT OF DISP.         1.064E-08   AT NODE        960   DOF  2
   INSTANCE: PLATE-1                                                                         
 LARGEST CORRECTION TO DISP.       -2.289E-18   AT NODE      13124   DOF  2
   INSTANCE: PLATE-1                                                                         
          THE FORCE     EQUILIBRIUM RESPONSE WAS LINEAR IN THIS INCREMENT

 AVERAGE HEAT FLUX                  1.280E-09   TIME AVG. HEAT FLUX   1.000E-02
 LARGEST RESIDUAL HEAT FLUX         8.556E-19   AT NODE        958   DOF 12
   INSTANCE: PLATE-1                                                                         
 LARGEST INCREMENT OF TEMP.         3.276E-02   AT NODE        958   DOF 11
   INSTANCE: PLATE-1                                                                         
 LARGEST CORRECTION TO TEMP.        1.936E-04   AT NODE        958   DOF 11
   INSTANCE: PLATE-1                                                                         
          THERE IS ZERO HEAT FLUX EVERYWHERE
 

 ***WARNING: THERE IS ZERO HEAT FLUX EVERYWHERE IN THE MODEL BASED ON THE 
             DEFAULT CRITERION. PLEASE CHECK THE VALUE OF THE AVERAGE HEAT FLUX 
             DURING THE CURRENT ITERATION TO VERIFY THAT THE HEAT FLUX IS SMALL 
             ENOUGH TO BE TREATED AS ZERO. IF NOT, PLEASE USE THE SOLUTION 
             CONTROLS TO RESET THE CRITERION FOR ZERO HEAT FLUX.

 ITERATION SUMMARY FOR THE INCREMENT:   1 TOTAL ITERATIONS, OF WHICH
   0 ARE SEVERE DISCONTINUITY ITERATIONS AND  1 ARE EQUILIBRIUM ITERATIONS.

 TIME INCREMENT COMPLETED  1.000E+04,  FRACTION OF STEP COMPLETED  1.900E-02
 STEP TIME COMPLETED       1.900E+05,  TOTAL TIME COMPLETED        1.900E+05


  INCREMENT    20 STARTS. ATTEMPT NUMBER  1, TIME INCREMENT  1.000E+04
 
	UNSYMMETRIC NEW DIRECT SPARSE SOLVER RUNNING ON
 	1 HOST x 1 MPI RANK PER HOST x 8 THREADS PER RANK
        NUMBER OF EQUATIONS:  131150
        NUMBER OF RHS:        1
        NUMBER OF FLOPS:      2.469e+11
        SOLVER ELAPSED TIME:  1.3s

               CONVERGENCE CHECKS FOR EQUILIBRIUM ITERATION     1


 AVERAGE FORCE                      1.724E-04   TIME AVG. FORCE       9.030E-05
 LARGEST SCALED RESIDUAL FORCE     -6.234E-17   AT NODE        585   DOF  2
   INSTANCE: PLATE-1                                                                         
  CORRESPONDING RESIDUAL FORCE     -6.234E-17
 LARGEST INCREMENT OF DISP.         1.064E-08   AT NODE        960   DOF  2
   INSTANCE: PLATE-1                                                                         
 LARGEST CORRECTION TO DISP.       -2.287E-18   AT NODE      13124   DOF  2
   INSTANCE: PLATE-1                                                                         
          THE FORCE     EQUILIBRIUM RESPONSE WAS LINEAR IN THIS INCREMENT

 AVERAGE HEAT FLUX                  1.351E-09   TIME AVG. HEAT FLUX   1.000E-02
 LARGEST RESIDUAL HEAT FLUX         8.560E-19   AT NODE        958   DOF 12
   INSTANCE: PLATE-1                                                                         
 LARGEST INCREMENT OF TEMP.         3.296E-02   AT NODE        958   DOF 11
   INSTANCE: PLATE-1                                                                         
 LARGEST CORRECTION TO TEMP.        1.950E-04   AT NODE        958   DOF 11
   INSTANCE: PLATE-1                                                                         
          THERE IS ZERO HEAT FLUX EVERYWHERE
 

 ***WARNING: THERE IS ZERO HEAT FLUX EVERYWHERE IN THE MODEL BASED ON THE 
             DEFAULT CRITERION. PLEASE CHECK THE VALUE OF THE AVERAGE HEAT FLUX 
             DURING THE CURRENT ITERATION TO VERIFY THAT THE HEAT FLUX IS SMALL 
             ENOUGH TO BE TREATED AS ZERO. IF NOT, PLEASE USE THE SOLUTION 
             CONTROLS TO RESET THE CRITERION FOR ZERO HEAT FLUX.

 ITERATION SUMMARY FOR THE INCREMENT:   1 TOTAL ITERATIONS, OF WHICH
   0 ARE SEVERE DISCONTINUITY ITERATIONS AND  1 ARE EQUILIBRIUM ITERATIONS.

 TIME INCREMENT COMPLETED  1.000E+04,  FRACTION OF STEP COMPLETED  2.000E-02
 STEP TIME COMPLETED       2.000E+05,  TOTAL TIME COMPLETED        2.000E+05


  INCREMENT    21 STARTS. ATTEMPT NUMBER  1, TIME INCREMENT  1.000E+04
 
	UNSYMMETRIC NEW DIRECT SPARSE SOLVER RUNNING ON
 	1 HOST x 1 MPI RANK PER HOST x 8 THREADS PER RANK
        NUMBER OF EQUATIONS:  131150
        NUMBER OF RHS:        1
        NUMBER OF FLOPS:      2.469e+11
        SOLVER ELAPSED TIME:  1.3s

               CONVERGENCE CHECKS FOR EQUILIBRIUM ITERATION     1


 AVERAGE FORCE                      1.810E-04   TIME AVG. FORCE       9.462E-05
 LARGEST SCALED RESIDUAL FORCE      5.799E-17   AT NODE       1146   DOF  2
   INSTANCE: PLATE-1                                                                         
  CORRESPONDING RESIDUAL FORCE      5.799E-17
 LARGEST INCREMENT OF DISP.         1.064E-08   AT NODE        960   DOF  2
   INSTANCE: PLATE-1                                                                         
 LARGEST CORRECTION TO DISP.       -2.285E-18   AT NODE      13124   DOF  2
   INSTANCE: PLATE-1                                                                         
          THE FORCE     EQUILIBRIUM RESPONSE WAS LINEAR IN THIS INCREMENT

 AVERAGE HEAT FLUX                  1.422E-09   TIME AVG. HEAT FLUX   1.000E-02
 LARGEST RESIDUAL HEAT FLUX         8.563E-19   AT NODE        958   DOF 12
   INSTANCE: PLATE-1                                                                         
 LARGEST INCREMENT OF TEMP.         3.316E-02   AT NODE        958   DOF 11
   INSTANCE: PLATE-1                                                                         
 LARGEST CORRECTION TO TEMP.        1.965E-04   AT NODE        958   DOF 11
   INSTANCE: PLATE-1                                                                         
          THERE IS ZERO HEAT FLUX EVERYWHERE
 

 ***WARNING: THERE IS ZERO HEAT FLUX EVERYWHERE IN THE MODEL BASED ON THE 
             DEFAULT CRITERION. PLEASE CHECK THE VALUE OF THE AVERAGE HEAT FLUX 
             DURING THE CURRENT ITERATION TO VERIFY THAT THE HEAT FLUX IS SMALL 
             ENOUGH TO BE TREATED AS ZERO. IF NOT, PLEASE USE THE SOLUTION 
             CONTROLS TO RESET THE CRITERION FOR ZERO HEAT FLUX.

 ITERATION SUMMARY FOR THE INCREMENT:   1 TOTAL ITERATIONS, OF WHICH
   0 ARE SEVERE DISCONTINUITY ITERATIONS AND  1 ARE EQUILIBRIUM ITERATIONS.

 TIME INCREMENT COMPLETED  1.000E+04,  FRACTION OF STEP COMPLETED  2.100E-02
 STEP TIME COMPLETED       2.100E+05,  TOTAL TIME COMPLETED        2.100E+05


  INCREMENT    22 STARTS. ATTEMPT NUMBER  1, TIME INCREMENT  1.000E+04
 
	UNSYMMETRIC NEW DIRECT SPARSE SOLVER RUNNING ON
 	1 HOST x 1 MPI RANK PER HOST x 8 THREADS PER RANK
        NUMBER OF EQUATIONS:  131150
        NUMBER OF RHS:        1
        NUMBER OF FLOPS:      2.469e+11
        SOLVER ELAPSED TIME:  1.3s

               CONVERGENCE CHECKS FOR EQUILIBRIUM ITERATION     1


 AVERAGE FORCE                      1.897E-04   TIME AVG. FORCE       9.894E-05
 LARGEST SCALED RESIDUAL FORCE     -6.180E-17   AT NODE       1546   DOF  2
   INSTANCE: PLATE-1                                                                         
  CORRESPONDING RESIDUAL FORCE     -6.180E-17
 LARGEST INCREMENT OF DISP.         1.064E-08   AT NODE        960   DOF  2
   INSTANCE: PLATE-1                                                                         
 LARGEST CORRECTION TO DISP.       -2.283E-18   AT NODE      13124   DOF  2
   INSTANCE: PLATE-1                                                                         
          THE FORCE     EQUILIBRIUM RESPONSE WAS LINEAR IN THIS INCREMENT

 AVERAGE HEAT FLUX                  1.494E-09   TIME AVG. HEAT FLUX   1.000E-02
 LARGEST RESIDUAL HEAT FLUX         8.567E-19   AT NODE        958   DOF 12
   INSTANCE: PLATE-1                                                                         
 LARGEST INCREMENT OF TEMP.         3.335E-02   AT NODE        958   DOF 11
   INSTANCE: PLATE-1                                                                         
 LARGEST CORRECTION TO TEMP.        1.979E-04   AT NODE        958   DOF 11
   INSTANCE: PLATE-1                                                                         
          THERE IS ZERO HEAT FLUX EVERYWHERE
 

 ***WARNING: THERE IS ZERO HEAT FLUX EVERYWHERE IN THE MODEL BASED ON THE 
             DEFAULT CRITERION. PLEASE CHECK THE VALUE OF THE AVERAGE HEAT FLUX 
             DURING THE CURRENT ITERATION TO VERIFY THAT THE HEAT FLUX IS SMALL 
             ENOUGH TO BE TREATED AS ZERO. IF NOT, PLEASE USE THE SOLUTION 
             CONTROLS TO RESET THE CRITERION FOR ZERO HEAT FLUX.

 ITERATION SUMMARY FOR THE INCREMENT:   1 TOTAL ITERATIONS, OF WHICH
   0 ARE SEVERE DISCONTINUITY ITERATIONS AND  1 ARE EQUILIBRIUM ITERATIONS.

 TIME INCREMENT COMPLETED  1.000E+04,  FRACTION OF STEP COMPLETED  2.200E-02
 STEP TIME COMPLETED       2.200E+05,  TOTAL TIME COMPLETED        2.200E+05


  INCREMENT    23 STARTS. ATTEMPT NUMBER  1, TIME INCREMENT  1.000E+04
 
	UNSYMMETRIC NEW DIRECT SPARSE SOLVER RUNNING ON
 	1 HOST x 1 MPI RANK PER HOST x 8 THREADS PER RANK
        NUMBER OF EQUATIONS:  131150
        NUMBER OF RHS:        1
        NUMBER OF FLOPS:      2.469e+11
        SOLVER ELAPSED TIME:  1.3s

               CONVERGENCE CHECKS FOR EQUILIBRIUM ITERATION     1


 AVERAGE FORCE                      1.983E-04   TIME AVG. FORCE       1.033E-04
 LARGEST SCALED RESIDUAL FORCE     -6.158E-17   AT NODE        617   DOF  2
   INSTANCE: PLATE-1                                                                         
  CORRESPONDING RESIDUAL FORCE     -6.158E-17
 LARGEST INCREMENT OF DISP.         1.064E-08   AT NODE        960   DOF  2
   INSTANCE: PLATE-1                                                                         
 LARGEST CORRECTION TO DISP.       -2.282E-18   AT NODE      13124   DOF  2
   INSTANCE: PLATE-1                                                                         
          THE FORCE     EQUILIBRIUM RESPONSE WAS LINEAR IN THIS INCREMENT

 AVERAGE HEAT FLUX                  1.565E-09   TIME AVG. HEAT FLUX   1.000E-02
 LARGEST RESIDUAL HEAT FLUX         8.570E-19   AT NODE        958   DOF 12
   INSTANCE: PLATE-1                                                                         
 LARGEST INCREMENT OF TEMP.         3.355E-02   AT NODE        958   DOF 11
   INSTANCE: PLATE-1                                                                         
 LARGEST CORRECTION TO TEMP.        1.994E-04   AT NODE        958   DOF 11
   INSTANCE: PLATE-1                                                                         
          THERE IS ZERO HEAT FLUX EVERYWHERE
 

 ***WARNING: THERE IS ZERO HEAT FLUX EVERYWHERE IN THE MODEL BASED ON THE 
             DEFAULT CRITERION. PLEASE CHECK THE VALUE OF THE AVERAGE HEAT FLUX 
             DURING THE CURRENT ITERATION TO VERIFY THAT THE HEAT FLUX IS SMALL 
             ENOUGH TO BE TREATED AS ZERO. IF NOT, PLEASE USE THE SOLUTION 
             CONTROLS TO RESET THE CRITERION FOR ZERO HEAT FLUX.

 ITERATION SUMMARY FOR THE INCREMENT:   1 TOTAL ITERATIONS, OF WHICH
   0 ARE SEVERE DISCONTINUITY ITERATIONS AND  1 ARE EQUILIBRIUM ITERATIONS.

 TIME INCREMENT COMPLETED  1.000E+04,  FRACTION OF STEP COMPLETED  2.300E-02
 STEP TIME COMPLETED       2.300E+05,  TOTAL TIME COMPLETED        2.300E+05


  INCREMENT    24 STARTS. ATTEMPT NUMBER  1, TIME INCREMENT  1.000E+04
 
	UNSYMMETRIC NEW DIRECT SPARSE SOLVER RUNNING ON
 	1 HOST x 1 MPI RANK PER HOST x 8 THREADS PER RANK
        NUMBER OF EQUATIONS:  131150
        NUMBER OF RHS:        1
        NUMBER OF FLOPS:      2.469e+11
        SOLVER ELAPSED TIME:  1.3s

               CONVERGENCE CHECKS FOR EQUILIBRIUM ITERATION     1


 AVERAGE FORCE                      2.069E-04   TIME AVG. FORCE       1.076E-04
 LARGEST SCALED RESIDUAL FORCE      6.364E-17   AT NODE       1545   DOF  2
   INSTANCE: PLATE-1                                                                         
  CORRESPONDING RESIDUAL FORCE      6.364E-17
 LARGEST INCREMENT OF DISP.         1.064E-08   AT NODE        960   DOF  2
   INSTANCE: PLATE-1                                                                         
 LARGEST CORRECTION TO DISP.       -2.280E-18   AT NODE      13124   DOF  2
   INSTANCE: PLATE-1                                                                         
          THE FORCE     EQUILIBRIUM RESPONSE WAS LINEAR IN THIS INCREMENT

 AVERAGE HEAT FLUX                  1.637E-09   TIME AVG. HEAT FLUX   1.000E-02
 LARGEST RESIDUAL HEAT FLUX         8.574E-19   AT NODE        958   DOF 12
   INSTANCE: PLATE-1                                                                         
 LARGEST INCREMENT OF TEMP.         3.375E-02   AT NODE        958   DOF 11
   INSTANCE: PLATE-1                                                                         
 LARGEST CORRECTION TO TEMP.        2.009E-04   AT NODE        958   DOF 11
   INSTANCE: PLATE-1                                                                         
          THERE IS ZERO HEAT FLUX EVERYWHERE
 

 ***WARNING: THERE IS ZERO HEAT FLUX EVERYWHERE IN THE MODEL BASED ON THE 
             DEFAULT CRITERION. PLEASE CHECK THE VALUE OF THE AVERAGE HEAT FLUX 
             DURING THE CURRENT ITERATION TO VERIFY THAT THE HEAT FLUX IS SMALL 
             ENOUGH TO BE TREATED AS ZERO. IF NOT, PLEASE USE THE SOLUTION 
             CONTROLS TO RESET THE CRITERION FOR ZERO HEAT FLUX.

 ITERATION SUMMARY FOR THE INCREMENT:   1 TOTAL ITERATIONS, OF WHICH
   0 ARE SEVERE DISCONTINUITY ITERATIONS AND  1 ARE EQUILIBRIUM ITERATIONS.

 TIME INCREMENT COMPLETED  1.000E+04,  FRACTION OF STEP COMPLETED  2.400E-02
 STEP TIME COMPLETED       2.400E+05,  TOTAL TIME COMPLETED        2.400E+05


  INCREMENT    25 STARTS. ATTEMPT NUMBER  1, TIME INCREMENT  1.000E+04
 
	UNSYMMETRIC NEW DIRECT SPARSE SOLVER RUNNING ON
 	1 HOST x 1 MPI RANK PER HOST x 8 THREADS PER RANK
        NUMBER OF EQUATIONS:  131150
        NUMBER OF RHS:        1
        NUMBER OF FLOPS:      2.469e+11
        SOLVER ELAPSED TIME:  1.4s

               CONVERGENCE CHECKS FOR EQUILIBRIUM ITERATION     1


 AVERAGE FORCE                      2.155E-04   TIME AVG. FORCE       1.119E-04
 LARGEST SCALED RESIDUAL FORCE     -5.107E-17   AT NODE       1579   DOF  2
   INSTANCE: PLATE-1                                                                         
  CORRESPONDING RESIDUAL FORCE     -5.107E-17
 LARGEST INCREMENT OF DISP.         1.064E-08   AT NODE        960   DOF  2
   INSTANCE: PLATE-1                                                                         
 LARGEST CORRECTION TO DISP.       -2.278E-18   AT NODE      13124   DOF  2
   INSTANCE: PLATE-1                                                                         
          THE FORCE     EQUILIBRIUM RESPONSE WAS LINEAR IN THIS INCREMENT

 AVERAGE HEAT FLUX                  1.708E-09   TIME AVG. HEAT FLUX   1.000E-02
 LARGEST RESIDUAL HEAT FLUX         8.578E-19   AT NODE        958   DOF 12
   INSTANCE: PLATE-1                                                                         
 LARGEST INCREMENT OF TEMP.         3.396E-02   AT NODE        958   DOF 11
   INSTANCE: PLATE-1                                                                         
 LARGEST CORRECTION TO TEMP.        2.024E-04   AT NODE        958   DOF 11
   INSTANCE: PLATE-1                                                                         
          THERE IS ZERO HEAT FLUX EVERYWHERE
 

 ***WARNING: THERE IS ZERO HEAT FLUX EVERYWHERE IN THE MODEL BASED ON THE 
             DEFAULT CRITERION. PLEASE CHECK THE VALUE OF THE AVERAGE HEAT FLUX 
             DURING THE CURRENT ITERATION TO VERIFY THAT THE HEAT FLUX IS SMALL 
             ENOUGH TO BE TREATED AS ZERO. IF NOT, PLEASE USE THE SOLUTION 
             CONTROLS TO RESET THE CRITERION FOR ZERO HEAT FLUX.

 ITERATION SUMMARY FOR THE INCREMENT:   1 TOTAL ITERATIONS, OF WHICH
   0 ARE SEVERE DISCONTINUITY ITERATIONS AND  1 ARE EQUILIBRIUM ITERATIONS.

 TIME INCREMENT COMPLETED  1.000E+04,  FRACTION OF STEP COMPLETED  2.500E-02
 STEP TIME COMPLETED       2.500E+05,  TOTAL TIME COMPLETED        2.500E+05


  INCREMENT    26 STARTS. ATTEMPT NUMBER  1, TIME INCREMENT  1.000E+04
 
	UNSYMMETRIC NEW DIRECT SPARSE SOLVER RUNNING ON
 	1 HOST x 1 MPI RANK PER HOST x 8 THREADS PER RANK
        NUMBER OF EQUATIONS:  131150
        NUMBER OF RHS:        1
        NUMBER OF FLOPS:      2.469e+11
        SOLVER ELAPSED TIME:  1.4s

               CONVERGENCE CHECKS FOR EQUILIBRIUM ITERATION     1


 AVERAGE FORCE                      2.242E-04   TIME AVG. FORCE       1.162E-04
 LARGEST SCALED RESIDUAL FORCE     -6.332E-17   AT NODE       1535   DOF  2
   INSTANCE: PLATE-1                                                                         
  CORRESPONDING RESIDUAL FORCE     -6.332E-17
 LARGEST INCREMENT OF DISP.         1.064E-08   AT NODE        960   DOF  2
   INSTANCE: PLATE-1                                                                         
 LARGEST CORRECTION TO DISP.       -2.277E-18   AT NODE      11644   DOF  2
   INSTANCE: PLATE-1                                                                         
          THE FORCE     EQUILIBRIUM RESPONSE WAS LINEAR IN THIS INCREMENT

 AVERAGE HEAT FLUX                  1.780E-09   TIME AVG. HEAT FLUX   1.000E-02
 LARGEST RESIDUAL HEAT FLUX         8.582E-19   AT NODE        958   DOF 12
   INSTANCE: PLATE-1                                                                         
 LARGEST INCREMENT OF TEMP.         3.416E-02   AT NODE        958   DOF 11
   INSTANCE: PLATE-1                                                                         
 LARGEST CORRECTION TO TEMP.        2.039E-04   AT NODE        958   DOF 11
   INSTANCE: PLATE-1                                                                         
          THERE IS ZERO HEAT FLUX EVERYWHERE
 

 ***WARNING: THERE IS ZERO HEAT FLUX EVERYWHERE IN THE MODEL BASED ON THE 
             DEFAULT CRITERION. PLEASE CHECK THE VALUE OF THE AVERAGE HEAT FLUX 
             DURING THE CURRENT ITERATION TO VERIFY THAT THE HEAT FLUX IS SMALL 
             ENOUGH TO BE TREATED AS ZERO. IF NOT, PLEASE USE THE SOLUTION 
             CONTROLS TO RESET THE CRITERION FOR ZERO HEAT FLUX.

 ITERATION SUMMARY FOR THE INCREMENT:   1 TOTAL ITERATIONS, OF WHICH
   0 ARE SEVERE DISCONTINUITY ITERATIONS AND  1 ARE EQUILIBRIUM ITERATIONS.

 TIME INCREMENT COMPLETED  1.000E+04,  FRACTION OF STEP COMPLETED  2.600E-02
 STEP TIME COMPLETED       2.600E+05,  TOTAL TIME COMPLETED        2.600E+05


  INCREMENT    27 STARTS. ATTEMPT NUMBER  1, TIME INCREMENT  1.000E+04
 
	UNSYMMETRIC NEW DIRECT SPARSE SOLVER RUNNING ON
 	1 HOST x 1 MPI RANK PER HOST x 8 THREADS PER RANK
        NUMBER OF EQUATIONS:  131150
        NUMBER OF RHS:        1
        NUMBER OF FLOPS:      2.469e+11
        SOLVER ELAPSED TIME:  1.4s

               CONVERGENCE CHECKS FOR EQUILIBRIUM ITERATION     1


 AVERAGE FORCE                      2.328E-04   TIME AVG. FORCE       1.205E-04
 LARGEST SCALED RESIDUAL FORCE     -5.117E-17   AT NODE      21917   DOF  2
   INSTANCE: PLATE-1                                                                         
  CORRESPONDING RESIDUAL FORCE     -5.117E-17
 LARGEST INCREMENT OF DISP.         1.064E-08   AT NODE        960   DOF  2
   INSTANCE: PLATE-1                                                                         
 LARGEST CORRECTION TO DISP.       -2.275E-18   AT NODE      11644   DOF  2
   INSTANCE: PLATE-1                                                                         
          THE FORCE     EQUILIBRIUM RESPONSE WAS LINEAR IN THIS INCREMENT

 AVERAGE HEAT FLUX                  1.852E-09   TIME AVG. HEAT FLUX   1.000E-02
 LARGEST RESIDUAL HEAT FLUX         8.585E-19   AT NODE        958   DOF 12
   INSTANCE: PLATE-1                                                                         
 LARGEST INCREMENT OF TEMP.         3.437E-02   AT NODE        958   DOF 11
   INSTANCE: PLATE-1                                                                         
 LARGEST CORRECTION TO TEMP.        2.054E-04   AT NODE        958   DOF 11
   INSTANCE: PLATE-1                                                                         
          THERE IS ZERO HEAT FLUX EVERYWHERE
 

 ***WARNING: THERE IS ZERO HEAT FLUX EVERYWHERE IN THE MODEL BASED ON THE 
             DEFAULT CRITERION. PLEASE CHECK THE VALUE OF THE AVERAGE HEAT FLUX 
             DURING THE CURRENT ITERATION TO VERIFY THAT THE HEAT FLUX IS SMALL 
             ENOUGH TO BE TREATED AS ZERO. IF NOT, PLEASE USE THE SOLUTION 
             CONTROLS TO RESET THE CRITERION FOR ZERO HEAT FLUX.

 ITERATION SUMMARY FOR THE INCREMENT:   1 TOTAL ITERATIONS, OF WHICH
   0 ARE SEVERE DISCONTINUITY ITERATIONS AND  1 ARE EQUILIBRIUM ITERATIONS.

 TIME INCREMENT COMPLETED  1.000E+04,  FRACTION OF STEP COMPLETED  2.700E-02
 STEP TIME COMPLETED       2.700E+05,  TOTAL TIME COMPLETED        2.700E+05


  INCREMENT    28 STARTS. ATTEMPT NUMBER  1, TIME INCREMENT  1.000E+04
 
	UNSYMMETRIC NEW DIRECT SPARSE SOLVER RUNNING ON
 	1 HOST x 1 MPI RANK PER HOST x 8 THREADS PER RANK
        NUMBER OF EQUATIONS:  131150
        NUMBER OF RHS:        1
        NUMBER OF FLOPS:      2.469e+11
        SOLVER ELAPSED TIME:  1.3s

               CONVERGENCE CHECKS FOR EQUILIBRIUM ITERATION     1


 AVERAGE FORCE                      2.414E-04   TIME AVG. FORCE       1.249E-04
 LARGEST SCALED RESIDUAL FORCE      5.894E-17   AT NODE        715   DOF  2
   INSTANCE: PLATE-1                                                                         
  CORRESPONDING RESIDUAL FORCE      5.894E-17
 LARGEST INCREMENT OF DISP.         1.064E-08   AT NODE        960   DOF  2
   INSTANCE: PLATE-1                                                                         
 LARGEST CORRECTION TO DISP.       -2.274E-18   AT NODE      11644   DOF  2
   INSTANCE: PLATE-1                                                                         
          THE FORCE     EQUILIBRIUM RESPONSE WAS LINEAR IN THIS INCREMENT

 AVERAGE HEAT FLUX                  1.923E-09   TIME AVG. HEAT FLUX   1.000E-02
 LARGEST RESIDUAL HEAT FLUX         8.589E-19   AT NODE        958   DOF 12
   INSTANCE: PLATE-1                                                                         
 LARGEST INCREMENT OF TEMP.         3.457E-02   AT NODE        958   DOF 11
   INSTANCE: PLATE-1                                                                         
 LARGEST CORRECTION TO TEMP.        2.070E-04   AT NODE        958   DOF 11
   INSTANCE: PLATE-1                                                                         
          THERE IS ZERO HEAT FLUX EVERYWHERE
 

 ***WARNING: THERE IS ZERO HEAT FLUX EVERYWHERE IN THE MODEL BASED ON THE 
             DEFAULT CRITERION. PLEASE CHECK THE VALUE OF THE AVERAGE HEAT FLUX 
             DURING THE CURRENT ITERATION TO VERIFY THAT THE HEAT FLUX IS SMALL 
             ENOUGH TO BE TREATED AS ZERO. IF NOT, PLEASE USE THE SOLUTION 
             CONTROLS TO RESET THE CRITERION FOR ZERO HEAT FLUX.

 ITERATION SUMMARY FOR THE INCREMENT:   1 TOTAL ITERATIONS, OF WHICH
   0 ARE SEVERE DISCONTINUITY ITERATIONS AND  1 ARE EQUILIBRIUM ITERATIONS.

 TIME INCREMENT COMPLETED  1.000E+04,  FRACTION OF STEP COMPLETED  2.800E-02
 STEP TIME COMPLETED       2.800E+05,  TOTAL TIME COMPLETED        2.800E+05


  INCREMENT    29 STARTS. ATTEMPT NUMBER  1, TIME INCREMENT  1.000E+04
 
	UNSYMMETRIC NEW DIRECT SPARSE SOLVER RUNNING ON
 	1 HOST x 1 MPI RANK PER HOST x 8 THREADS PER RANK
        NUMBER OF EQUATIONS:  131150
        NUMBER OF RHS:        1
        NUMBER OF FLOPS:      2.469e+11
        SOLVER ELAPSED TIME:  1.3s

               CONVERGENCE CHECKS FOR EQUILIBRIUM ITERATION     1


 AVERAGE FORCE                      2.500E-04   TIME AVG. FORCE       1.292E-04
 LARGEST SCALED RESIDUAL FORCE     -5.844E-17   AT NODE       1539   DOF  2
   INSTANCE: PLATE-1                                                                         
  CORRESPONDING RESIDUAL FORCE     -5.844E-17
 LARGEST INCREMENT OF DISP.         1.064E-08   AT NODE        960   DOF  2
   INSTANCE: PLATE-1                                                                         
 LARGEST CORRECTION TO DISP.       -2.272E-18   AT NODE      11644   DOF  2
   INSTANCE: PLATE-1                                                                         
          THE FORCE     EQUILIBRIUM RESPONSE WAS LINEAR IN THIS INCREMENT

 AVERAGE HEAT FLUX                  1.995E-09   TIME AVG. HEAT FLUX   1.000E-02
 LARGEST RESIDUAL HEAT FLUX         8.593E-19   AT NODE        958   DOF 12
   INSTANCE: PLATE-1                                                                         
 LARGEST INCREMENT OF TEMP.         3.478E-02   AT NODE        958   DOF 11
   INSTANCE: PLATE-1                                                                         
 LARGEST CORRECTION TO TEMP.        2.085E-04   AT NODE        958   DOF 11
   INSTANCE: PLATE-1                                                                         
          THERE IS ZERO HEAT FLUX EVERYWHERE
 

 ***WARNING: THERE IS ZERO HEAT FLUX EVERYWHERE IN THE MODEL BASED ON THE 
             DEFAULT CRITERION. PLEASE CHECK THE VALUE OF THE AVERAGE HEAT FLUX 
             DURING THE CURRENT ITERATION TO VERIFY THAT THE HEAT FLUX IS SMALL 
             ENOUGH TO BE TREATED AS ZERO. IF NOT, PLEASE USE THE SOLUTION 
             CONTROLS TO RESET THE CRITERION FOR ZERO HEAT FLUX.

 ITERATION SUMMARY FOR THE INCREMENT:   1 TOTAL ITERATIONS, OF WHICH
   0 ARE SEVERE DISCONTINUITY ITERATIONS AND  1 ARE EQUILIBRIUM ITERATIONS.

 TIME INCREMENT COMPLETED  1.000E+04,  FRACTION OF STEP COMPLETED  2.900E-02
 STEP TIME COMPLETED       2.900E+05,  TOTAL TIME COMPLETED        2.900E+05


  INCREMENT    30 STARTS. ATTEMPT NUMBER  1, TIME INCREMENT  1.000E+04
 
	UNSYMMETRIC NEW DIRECT SPARSE SOLVER RUNNING ON
 	1 HOST x 1 MPI RANK PER HOST x 8 THREADS PER RANK
        NUMBER OF EQUATIONS:  131150
        NUMBER OF RHS:        1
        NUMBER OF FLOPS:      2.469e+11
        SOLVER ELAPSED TIME:  1.3s

               CONVERGENCE CHECKS FOR EQUILIBRIUM ITERATION     1


 AVERAGE FORCE                      2.586E-04   TIME AVG. FORCE       1.335E-04
 LARGEST SCALED RESIDUAL FORCE     -1.227E-09   AT NODE          2   DOF  3
   INSTANCE: PLATE-1                                                                         
  CORRESPONDING RESIDUAL FORCE     -1.227E-09
 LARGEST INCREMENT OF DISP.         1.064E-08   AT NODE        960   DOF  2
   INSTANCE: PLATE-1                                                                         
 LARGEST CORRECTION TO DISP.        1.780E-11   AT NODE         57   DOF  2
   INSTANCE: PLATE-1                                                                         
          THE FORCE     EQUILIBRIUM EQUATIONS HAVE CONVERGED

 AVERAGE HEAT FLUX                  2.067E-09   TIME AVG. HEAT FLUX   1.000E-02
 LARGEST RESIDUAL HEAT FLUX         8.597E-19   AT NODE        958   DOF 12
   INSTANCE: PLATE-1                                                                         
 LARGEST INCREMENT OF TEMP.         3.499E-02   AT NODE        958   DOF 11
   INSTANCE: PLATE-1                                                                         
 LARGEST CORRECTION TO TEMP.        2.101E-04   AT NODE        958   DOF 11
   INSTANCE: PLATE-1                                                                         
          THERE IS ZERO HEAT FLUX EVERYWHERE
 

 ***WARNING: THERE IS ZERO HEAT FLUX EVERYWHERE IN THE MODEL BASED ON THE 
             DEFAULT CRITERION. PLEASE CHECK THE VALUE OF THE AVERAGE HEAT FLUX 
             DURING THE CURRENT ITERATION TO VERIFY THAT THE HEAT FLUX IS SMALL 
             ENOUGH TO BE TREATED AS ZERO. IF NOT, PLEASE USE THE SOLUTION 
             CONTROLS TO RESET THE CRITERION FOR ZERO HEAT FLUX.

 ITERATION SUMMARY FOR THE INCREMENT:   1 TOTAL ITERATIONS, OF WHICH
   0 ARE SEVERE DISCONTINUITY ITERATIONS AND  1 ARE EQUILIBRIUM ITERATIONS.

 TIME INCREMENT COMPLETED  1.000E+04,  FRACTION OF STEP COMPLETED  3.000E-02
 STEP TIME COMPLETED       3.000E+05,  TOTAL TIME COMPLETED        3.000E+05


  INCREMENT    31 STARTS. ATTEMPT NUMBER  1, TIME INCREMENT  1.000E+04
 
	UNSYMMETRIC NEW DIRECT SPARSE SOLVER RUNNING ON
 	1 HOST x 1 MPI RANK PER HOST x 8 THREADS PER RANK
        NUMBER OF EQUATIONS:  131150
        NUMBER OF RHS:        1
        NUMBER OF FLOPS:      2.469e+11
        SOLVER ELAPSED TIME:  1.4s

               CONVERGENCE CHECKS FOR EQUILIBRIUM ITERATION     1


 AVERAGE FORCE                      2.673E-04   TIME AVG. FORCE       1.378E-04
 LARGEST SCALED RESIDUAL FORCE      2.873E-08   AT NODE       1436   DOF  1
   INSTANCE: PLATE-1                                                                         
  CORRESPONDING RESIDUAL FORCE      2.873E-08
 LARGEST INCREMENT OF DISP.         1.064E-08   AT NODE        960   DOF  2
   INSTANCE: PLATE-1                                                                         
 LARGEST CORRECTION TO DISP.       -5.594E-11   AT NODE          2   DOF  3
   INSTANCE: PLATE-1                                                                         
          THE FORCE     EQUILIBRIUM EQUATIONS HAVE CONVERGED

 AVERAGE HEAT FLUX                  2.138E-09   TIME AVG. HEAT FLUX   1.000E-02
 LARGEST RESIDUAL HEAT FLUX        -1.714E-18   AT NODE          2   DOF 12
   INSTANCE: PLATE-1                                                                         
 LARGEST INCREMENT OF TEMP.         3.548E-02   AT NODE        958   DOF 11
   INSTANCE: PLATE-1                                                                         
 LARGEST CORRECTION TO TEMP.       -1.541E-03   AT NODE          2   DOF 11
   INSTANCE: PLATE-1                                                                         
          THERE IS ZERO HEAT FLUX EVERYWHERE
 

 ***WARNING: THERE IS ZERO HEAT FLUX EVERYWHERE IN THE MODEL BASED ON THE 
             DEFAULT CRITERION. PLEASE CHECK THE VALUE OF THE AVERAGE HEAT FLUX 
             DURING THE CURRENT ITERATION TO VERIFY THAT THE HEAT FLUX IS SMALL 
             ENOUGH TO BE TREATED AS ZERO. IF NOT, PLEASE USE THE SOLUTION 
             CONTROLS TO RESET THE CRITERION FOR ZERO HEAT FLUX.

 ITERATION SUMMARY FOR THE INCREMENT:   1 TOTAL ITERATIONS, OF WHICH
[...]
 LARGEST INCREMENT OF TEMP.        -1.236E-02   AT NODE         29   DOF 11
   INSTANCE: PLATE-1                                                                         
 LARGEST CORRECTION TO TEMP.       -2.283E-04   AT NODE      25771   DOF 11
   INSTANCE: PLATE-1                                                                         
          THERE IS ZERO HEAT FLUX EVERYWHERE
 

 ***WARNING: THERE IS ZERO HEAT FLUX EVERYWHERE IN THE MODEL BASED ON THE 
             DEFAULT CRITERION. PLEASE CHECK THE VALUE OF THE AVERAGE HEAT FLUX 
             DURING THE CURRENT ITERATION TO VERIFY THAT THE HEAT FLUX IS SMALL 
             ENOUGH TO BE TREATED AS ZERO. IF NOT, PLEASE USE THE SOLUTION 
             CONTROLS TO RESET THE CRITERION FOR ZERO HEAT FLUX.

 ITERATION SUMMARY FOR THE INCREMENT:   1 TOTAL ITERATIONS, OF WHICH
   0 ARE SEVERE DISCONTINUITY ITERATIONS AND  1 ARE EQUILIBRIUM ITERATIONS.

 TIME INCREMENT COMPLETED  1.000E+04,  FRACTION OF STEP COMPLETED  0.381    
 STEP TIME COMPLETED       3.810E+06,  TOTAL TIME COMPLETED        3.810E+06


  INCREMENT   382 STARTS. ATTEMPT NUMBER  1, TIME INCREMENT  1.000E+04
 
	UNSYMMETRIC NEW DIRECT SPARSE SOLVER RUNNING ON
 	1 HOST x 1 MPI RANK PER HOST x 8 THREADS PER RANK
        NUMBER OF EQUATIONS:  131150
        NUMBER OF RHS:        1
        NUMBER OF FLOPS:      2.469e+11
        SOLVER ELAPSED TIME:  1.3s

               CONVERGENCE CHECKS FOR EQUILIBRIUM ITERATION     1


 AVERAGE FORCE                      1.642E-03   TIME AVG. FORCE       1.186E-03
 LARGEST SCALED RESIDUAL FORCE      2.193E-07   AT NODE      23183   DOF  2
   INSTANCE: PLATE-1                                                                         
  CORRESPONDING RESIDUAL FORCE      2.193E-07
 LARGEST INCREMENT OF DISP.         1.014E-08   AT NODE       1002   DOF  2
   INSTANCE: PLATE-1                                                                         
 LARGEST CORRECTION TO DISP.        2.311E-11   AT NODE      15813   DOF  2
   INSTANCE: PLATE-1                                                                         
          THE FORCE     EQUILIBRIUM EQUATIONS HAVE CONVERGED

 AVERAGE HEAT FLUX                  6.228E-08   TIME AVG. HEAT FLUX   1.000E-02
 LARGEST RESIDUAL HEAT FLUX         1.811E-18   AT NODE      24274   DOF 12
   INSTANCE: PLATE-1                                                                         
 LARGEST INCREMENT OF TEMP.        -1.232E-02   AT NODE         29   DOF 11
   INSTANCE: PLATE-1                                                                         
 LARGEST CORRECTION TO TEMP.       -2.167E-04   AT NODE      23713   DOF 11
   INSTANCE: PLATE-1                                                                         
          THERE IS ZERO HEAT FLUX EVERYWHERE
 

 ***WARNING: THERE IS ZERO HEAT FLUX EVERYWHERE IN THE MODEL BASED ON THE 
             DEFAULT CRITERION. PLEASE CHECK THE VALUE OF THE AVERAGE HEAT FLUX 
             DURING THE CURRENT ITERATION TO VERIFY THAT THE HEAT FLUX IS SMALL 
             ENOUGH TO BE TREATED AS ZERO. IF NOT, PLEASE USE THE SOLUTION 
             CONTROLS TO RESET THE CRITERION FOR ZERO HEAT FLUX.

 ITERATION SUMMARY FOR THE INCREMENT:   1 TOTAL ITERATIONS, OF WHICH
   0 ARE SEVERE DISCONTINUITY ITERATIONS AND  1 ARE EQUILIBRIUM ITERATIONS.

 TIME INCREMENT COMPLETED  1.000E+04,  FRACTION OF STEP COMPLETED  0.382    
 STEP TIME COMPLETED       3.820E+06,  TOTAL TIME COMPLETED        3.820E+06


  INCREMENT   383 STARTS. ATTEMPT NUMBER  1, TIME INCREMENT  1.000E+04
 
	UNSYMMETRIC NEW DIRECT SPARSE SOLVER RUNNING ON
 	1 HOST x 1 MPI RANK PER HOST x 8 THREADS PER RANK
        NUMBER OF EQUATIONS:  131150
        NUMBER OF RHS:        1
        NUMBER OF FLOPS:      2.469e+11
        SOLVER ELAPSED TIME:  1.4s

               CONVERGENCE CHECKS FOR EQUILIBRIUM ITERATION     1


 AVERAGE FORCE                      1.642E-03   TIME AVG. FORCE       1.187E-03
 LARGEST SCALED RESIDUAL FORCE     -1.508E-07   AT NODE      21177   DOF  2
   INSTANCE: PLATE-1                                                                         
  CORRESPONDING RESIDUAL FORCE     -1.508E-07
 LARGEST INCREMENT OF DISP.         1.014E-08   AT NODE       1002   DOF  2
   INSTANCE: PLATE-1                                                                         
 LARGEST CORRECTION TO DISP.       -6.207E-12   AT NODE      22132   DOF  2
   INSTANCE: PLATE-1                                                                         
          THE FORCE     EQUILIBRIUM EQUATIONS HAVE CONVERGED

 AVERAGE HEAT FLUX                  6.238E-08   TIME AVG. HEAT FLUX   1.000E-02
 LARGEST RESIDUAL HEAT FLUX         1.849E-18   AT NODE      20158   DOF 12
   INSTANCE: PLATE-1                                                                         
 LARGEST INCREMENT OF TEMP.        -1.228E-02   AT NODE         29   DOF 11
   INSTANCE: PLATE-1                                                                         
 LARGEST CORRECTION TO TEMP.       -2.610E-04   AT NODE      23713   DOF 11
   INSTANCE: PLATE-1                                                                         
          THERE IS ZERO HEAT FLUX EVERYWHERE
 

 ***WARNING: THERE IS ZERO HEAT FLUX EVERYWHERE IN THE MODEL BASED ON THE 
             DEFAULT CRITERION. PLEASE CHECK THE VALUE OF THE AVERAGE HEAT FLUX 
             DURING THE CURRENT ITERATION TO VERIFY THAT THE HEAT FLUX IS SMALL 
             ENOUGH TO BE TREATED AS ZERO. IF NOT, PLEASE USE THE SOLUTION 
             CONTROLS TO RESET THE CRITERION FOR ZERO HEAT FLUX.

 ITERATION SUMMARY FOR THE INCREMENT:   1 TOTAL ITERATIONS, OF WHICH
   0 ARE SEVERE DISCONTINUITY ITERATIONS AND  1 ARE EQUILIBRIUM ITERATIONS.

 TIME INCREMENT COMPLETED  1.000E+04,  FRACTION OF STEP COMPLETED  0.383    
 STEP TIME COMPLETED       3.830E+06,  TOTAL TIME COMPLETED        3.830E+06


  INCREMENT   384 STARTS. ATTEMPT NUMBER  1, TIME INCREMENT  1.000E+04
 
	UNSYMMETRIC NEW DIRECT SPARSE SOLVER RUNNING ON
 	1 HOST x 1 MPI RANK PER HOST x 8 THREADS PER RANK
        NUMBER OF EQUATIONS:  131150
        NUMBER OF RHS:        1
        NUMBER OF FLOPS:      2.469e+11
        SOLVER ELAPSED TIME:  1.6s

               CONVERGENCE CHECKS FOR EQUILIBRIUM ITERATION     1


 AVERAGE FORCE                      1.643E-03   TIME AVG. FORCE       1.188E-03
 LARGEST SCALED RESIDUAL FORCE      2.652E-07   AT NODE      20631   DOF  3
   INSTANCE: PLATE-1                                                                         
  CORRESPONDING RESIDUAL FORCE      2.652E-07
 LARGEST INCREMENT OF DISP.         1.014E-08   AT NODE       1002   DOF  2
   INSTANCE: PLATE-1                                                                         
 LARGEST CORRECTION TO DISP.       -9.761E-12   AT NODE      12427   DOF  2
   INSTANCE: PLATE-1                                                                         
          THE FORCE     EQUILIBRIUM EQUATIONS HAVE CONVERGED

 AVERAGE HEAT FLUX                  6.249E-08   TIME AVG. HEAT FLUX   1.000E-02
 LARGEST RESIDUAL HEAT FLUX         1.786E-18   AT NODE      22216   DOF 12
   INSTANCE: PLATE-1                                                                         
 LARGEST INCREMENT OF TEMP.        -1.225E-02   AT NODE         29   DOF 11
   INSTANCE: PLATE-1                                                                         
 LARGEST CORRECTION TO TEMP.       -2.398E-04   AT NODE      23713   DOF 11
   INSTANCE: PLATE-1                                                                         
          THERE IS ZERO HEAT FLUX EVERYWHERE
 

 ***WARNING: THERE IS ZERO HEAT FLUX EVERYWHERE IN THE MODEL BASED ON THE 
             DEFAULT CRITERION. PLEASE CHECK THE VALUE OF THE AVERAGE HEAT FLUX 
             DURING THE CURRENT ITERATION TO VERIFY THAT THE HEAT FLUX IS SMALL 
             ENOUGH TO BE TREATED AS ZERO. IF NOT, PLEASE USE THE SOLUTION 
             CONTROLS TO RESET THE CRITERION FOR ZERO HEAT FLUX.

 ITERATION SUMMARY FOR THE INCREMENT:   1 TOTAL ITERATIONS, OF WHICH
   0 ARE SEVERE DISCONTINUITY ITERATIONS AND  1 ARE EQUILIBRIUM ITERATIONS.

 TIME INCREMENT COMPLETED  1.000E+04,  FRACTION OF STEP COMPLETED  0.384    
 STEP TIME COMPLETED       3.840E+06,  TOTAL TIME COMPLETED        3.840E+06


  INCREMENT   385 STARTS. ATTEMPT NUMBER  1, TIME INCREMENT  1.000E+04
 
	UNSYMMETRIC NEW DIRECT SPARSE SOLVER RUNNING ON
 	1 HOST x 1 MPI RANK PER HOST x 8 THREADS PER RANK
        NUMBER OF EQUATIONS:  131150
        NUMBER OF RHS:        1
        NUMBER OF FLOPS:      2.469e+11
        SOLVER ELAPSED TIME:  2.1s

               CONVERGENCE CHECKS FOR EQUILIBRIUM ITERATION     1


 AVERAGE FORCE                      1.644E-03   TIME AVG. FORCE       1.190E-03
 LARGEST SCALED RESIDUAL FORCE      3.250E-07   AT NODE      13172   DOF  2
   INSTANCE: PLATE-1                                                                         
  CORRESPONDING RESIDUAL FORCE      3.250E-07
 LARGEST INCREMENT OF DISP.         1.014E-08   AT NODE       1002   DOF  2
   INSTANCE: PLATE-1                                                                         
 LARGEST CORRECTION TO DISP.        9.416E-12   AT NODE      22692   DOF  2
   INSTANCE: PLATE-1                                                                         
          THE FORCE     EQUILIBRIUM EQUATIONS HAVE CONVERGED

 AVERAGE HEAT FLUX                  6.260E-08   TIME AVG. HEAT FLUX   1.000E-02
 LARGEST RESIDUAL HEAT FLUX         1.809E-18   AT NODE      24274   DOF 12
   INSTANCE: PLATE-1                                                                         
 LARGEST INCREMENT OF TEMP.        -1.221E-02   AT NODE         29   DOF 11
   INSTANCE: PLATE-1                                                                         
 LARGEST CORRECTION TO TEMP.       -2.215E-04   AT NODE       5981   DOF 11
   INSTANCE: PLATE-1                                                                         
          THERE IS ZERO HEAT FLUX EVERYWHERE
 

 ***WARNING: THERE IS ZERO HEAT FLUX EVERYWHERE IN THE MODEL BASED ON THE 
             DEFAULT CRITERION. PLEASE CHECK THE VALUE OF THE AVERAGE HEAT FLUX 
             DURING THE CURRENT ITERATION TO VERIFY THAT THE HEAT FLUX IS SMALL 
             ENOUGH TO BE TREATED AS ZERO. IF NOT, PLEASE USE THE SOLUTION 
             CONTROLS TO RESET THE CRITERION FOR ZERO HEAT FLUX.

 ITERATION SUMMARY FOR THE INCREMENT:   1 TOTAL ITERATIONS, OF WHICH
   0 ARE SEVERE DISCONTINUITY ITERATIONS AND  1 ARE EQUILIBRIUM ITERATIONS.

 TIME INCREMENT COMPLETED  1.000E+04,  FRACTION OF STEP COMPLETED  0.385    
 STEP TIME COMPLETED       3.850E+06,  TOTAL TIME COMPLETED        3.850E+06


  INCREMENT   386 STARTS. ATTEMPT NUMBER  1, TIME INCREMENT  1.000E+04
 
	UNSYMMETRIC NEW DIRECT SPARSE SOLVER RUNNING ON
 	1 HOST x 1 MPI RANK PER HOST x 8 THREADS PER RANK
        NUMBER OF EQUATIONS:  131150
        NUMBER OF RHS:        1
        NUMBER OF FLOPS:      2.469e+11
        SOLVER ELAPSED TIME:  2.1s

               CONVERGENCE CHECKS FOR EQUILIBRIUM ITERATION     1


 AVERAGE FORCE                      1.645E-03   TIME AVG. FORCE       1.191E-03
 LARGEST SCALED RESIDUAL FORCE     -1.815E-07   AT NODE      12118   DOF  2
   INSTANCE: PLATE-1                                                                         
  CORRESPONDING RESIDUAL FORCE     -1.815E-07
 LARGEST INCREMENT OF DISP.         1.014E-08   AT NODE       1002   DOF  2
   INSTANCE: PLATE-1                                                                         
 LARGEST CORRECTION TO DISP.        8.784E-12   AT NODE      22161   DOF  2
   INSTANCE: PLATE-1                                                                         
          THE FORCE     EQUILIBRIUM EQUATIONS HAVE CONVERGED

 AVERAGE HEAT FLUX                  6.271E-08   TIME AVG. HEAT FLUX   1.000E-02
 LARGEST RESIDUAL HEAT FLUX         1.867E-18   AT NODE      20158   DOF 12
   INSTANCE: PLATE-1                                                                         
 LARGEST INCREMENT OF TEMP.        -1.218E-02   AT NODE         29   DOF 11
   INSTANCE: PLATE-1                                                                         
 LARGEST CORRECTION TO TEMP.       -2.268E-04   AT NODE       8104   DOF 11
   INSTANCE: PLATE-1                                                                         
          THERE IS ZERO HEAT FLUX EVERYWHERE
 

 ***WARNING: THERE IS ZERO HEAT FLUX EVERYWHERE IN THE MODEL BASED ON THE 
             DEFAULT CRITERION. PLEASE CHECK THE VALUE OF THE AVERAGE HEAT FLUX 
             DURING THE CURRENT ITERATION TO VERIFY THAT THE HEAT FLUX IS SMALL 
             ENOUGH TO BE TREATED AS ZERO. IF NOT, PLEASE USE THE SOLUTION 
             CONTROLS TO RESET THE CRITERION FOR ZERO HEAT FLUX.

 ITERATION SUMMARY FOR THE INCREMENT:   1 TOTAL ITERATIONS, OF WHICH
   0 ARE SEVERE DISCONTINUITY ITERATIONS AND  1 ARE EQUILIBRIUM ITERATIONS.

 TIME INCREMENT COMPLETED  1.000E+04,  FRACTION OF STEP COMPLETED  0.386    
 STEP TIME COMPLETED       3.860E+06,  TOTAL TIME COMPLETED        3.860E+06


  INCREMENT   387 STARTS. ATTEMPT NUMBER  1, TIME INCREMENT  1.000E+04
 
	UNSYMMETRIC NEW DIRECT SPARSE SOLVER RUNNING ON
 	1 HOST x 1 MPI RANK PER HOST x 8 THREADS PER RANK
        NUMBER OF EQUATIONS:  131150
        NUMBER OF RHS:        1
        NUMBER OF FLOPS:      2.469e+11
        SOLVER ELAPSED TIME:  2.1s

               CONVERGENCE CHECKS FOR EQUILIBRIUM ITERATION     1


 AVERAGE FORCE                      1.645E-03   TIME AVG. FORCE       1.192E-03
 LARGEST SCALED RESIDUAL FORCE      1.522E-07   AT NODE      13674   DOF  1
   INSTANCE: PLATE-1                                                                         
  CORRESPONDING RESIDUAL FORCE      1.522E-07
 LARGEST INCREMENT OF DISP.         1.014E-08   AT NODE       1002   DOF  2
   INSTANCE: PLATE-1                                                                         
 LARGEST CORRECTION TO DISP.       -8.183E-12   AT NODE      24013   DOF  2
   INSTANCE: PLATE-1                                                                         
          THE FORCE     EQUILIBRIUM EQUATIONS HAVE CONVERGED

 AVERAGE HEAT FLUX                  6.281E-08   TIME AVG. HEAT FLUX   1.000E-02
 LARGEST RESIDUAL HEAT FLUX         1.892E-18   AT NODE      22216   DOF 12
   INSTANCE: PLATE-1                                                                         
 LARGEST INCREMENT OF TEMP.        -1.214E-02   AT NODE         29   DOF 11
   INSTANCE: PLATE-1                                                                         
 LARGEST CORRECTION TO TEMP.       -2.036E-04   AT NODE       7671   DOF 11
   INSTANCE: PLATE-1                                                                         
          THERE IS ZERO HEAT FLUX EVERYWHERE
 

 ***WARNING: THERE IS ZERO HEAT FLUX EVERYWHERE IN THE MODEL BASED ON THE 
             DEFAULT CRITERION. PLEASE CHECK THE VALUE OF THE AVERAGE HEAT FLUX 
             DURING THE CURRENT ITERATION TO VERIFY THAT THE HEAT FLUX IS SMALL 
             ENOUGH TO BE TREATED AS ZERO. IF NOT, PLEASE USE THE SOLUTION 
             CONTROLS TO RESET THE CRITERION FOR ZERO HEAT FLUX.

 ITERATION SUMMARY FOR THE INCREMENT:   1 TOTAL ITERATIONS, OF WHICH
   0 ARE SEVERE DISCONTINUITY ITERATIONS AND  1 ARE EQUILIBRIUM ITERATIONS.

 TIME INCREMENT COMPLETED  1.000E+04,  FRACTION OF STEP COMPLETED  0.387    
 STEP TIME COMPLETED       3.870E+06,  TOTAL TIME COMPLETED        3.870E+06


  INCREMENT   388 STARTS. ATTEMPT NUMBER  1, TIME INCREMENT  1.000E+04
 
	UNSYMMETRIC NEW DIRECT SPARSE SOLVER RUNNING ON
 	1 HOST x 1 MPI RANK PER HOST x 8 THREADS PER RANK
        NUMBER OF EQUATIONS:  131150
        NUMBER OF RHS:        1
        NUMBER OF FLOPS:      2.469e+11
        SOLVER ELAPSED TIME:  1.4s

               CONVERGENCE CHECKS FOR EQUILIBRIUM ITERATION     1


 AVERAGE FORCE                      1.646E-03   TIME AVG. FORCE       1.193E-03
 LARGEST SCALED RESIDUAL FORCE     -5.543E-07   AT NODE      23666   DOF  2
   INSTANCE: PLATE-1                                                                         
  CORRESPONDING RESIDUAL FORCE     -5.543E-07
 LARGEST INCREMENT OF DISP.         1.014E-08   AT NODE       1002   DOF  2
   INSTANCE: PLATE-1                                                                         
 LARGEST CORRECTION TO DISP.        5.254E-12   AT NODE      23138   DOF  2
   INSTANCE: PLATE-1                                                                         
          THE FORCE     EQUILIBRIUM EQUATIONS HAVE CONVERGED

 AVERAGE HEAT FLUX                  6.292E-08   TIME AVG. HEAT FLUX   1.000E-02
 LARGEST RESIDUAL HEAT FLUX         1.855E-18   AT NODE      22216   DOF 12
   INSTANCE: PLATE-1                                                                         
 LARGEST INCREMENT OF TEMP.        -1.209E-02   AT NODE         29   DOF 11
   INSTANCE: PLATE-1                                                                         
 LARGEST CORRECTION TO TEMP.       -1.857E-04   AT NODE      17189   DOF 11
   INSTANCE: PLATE-1                                                                         
          THERE IS ZERO HEAT FLUX EVERYWHERE
 

 ***WARNING: THERE IS ZERO HEAT FLUX EVERYWHERE IN THE MODEL BASED ON THE 
             DEFAULT CRITERION. PLEASE CHECK THE VALUE OF THE AVERAGE HEAT FLUX 
             DURING THE CURRENT ITERATION TO VERIFY THAT THE HEAT FLUX IS SMALL 
             ENOUGH TO BE TREATED AS ZERO. IF NOT, PLEASE USE THE SOLUTION 
             CONTROLS TO RESET THE CRITERION FOR ZERO HEAT FLUX.

 ITERATION SUMMARY FOR THE INCREMENT:   1 TOTAL ITERATIONS, OF WHICH
   0 ARE SEVERE DISCONTINUITY ITERATIONS AND  1 ARE EQUILIBRIUM ITERATIONS.

 TIME INCREMENT COMPLETED  1.000E+04,  FRACTION OF STEP COMPLETED  0.388    
 STEP TIME COMPLETED       3.880E+06,  TOTAL TIME COMPLETED        3.880E+06


  INCREMENT   389 STARTS. ATTEMPT NUMBER  1, TIME INCREMENT  1.000E+04
 
	UNSYMMETRIC NEW DIRECT SPARSE SOLVER RUNNING ON
 	1 HOST x 1 MPI RANK PER HOST x 8 THREADS PER RANK
        NUMBER OF EQUATIONS:  131150
        NUMBER OF RHS:        1
        NUMBER OF FLOPS:      2.469e+11
        SOLVER ELAPSED TIME:  1.4s

               CONVERGENCE CHECKS FOR EQUILIBRIUM ITERATION     1


 AVERAGE FORCE                      1.647E-03   TIME AVG. FORCE       1.194E-03
 LARGEST SCALED RESIDUAL FORCE      2.121E-07   AT NODE      22728   DOF  2
   INSTANCE: PLATE-1                                                                         
  CORRESPONDING RESIDUAL FORCE      2.121E-07
 LARGEST INCREMENT OF DISP.         1.014E-08   AT NODE       1002   DOF  2
   INSTANCE: PLATE-1                                                                         
 LARGEST CORRECTION TO DISP.        9.674E-12   AT NODE      23759   DOF  2
   INSTANCE: PLATE-1                                                                         
          THE FORCE     EQUILIBRIUM EQUATIONS HAVE CONVERGED

 AVERAGE HEAT FLUX                  6.302E-08   TIME AVG. HEAT FLUX   1.000E-02
 LARGEST RESIDUAL HEAT FLUX         1.865E-18   AT NODE      11729   DOF 12
   INSTANCE: PLATE-1                                                                         
 LARGEST INCREMENT OF TEMP.        -1.205E-02   AT NODE         29   DOF 11
   INSTANCE: PLATE-1                                                                         
 LARGEST CORRECTION TO TEMP.       -2.168E-04   AT NODE       8746   DOF 11
   INSTANCE: PLATE-1                                                                         
          THERE IS ZERO HEAT FLUX EVERYWHERE
 

 ***WARNING: THERE IS ZERO HEAT FLUX EVERYWHERE IN THE MODEL BASED ON THE 
             DEFAULT CRITERION. PLEASE CHECK THE VALUE OF THE AVERAGE HEAT FLUX 
             DURING THE CURRENT ITERATION TO VERIFY THAT THE HEAT FLUX IS SMALL 
             ENOUGH TO BE TREATED AS ZERO. IF NOT, PLEASE USE THE SOLUTION 
             CONTROLS TO RESET THE CRITERION FOR ZERO HEAT FLUX.
