*Heading
** Job name: phase_field_3D_millimeter Model name: Model-3D-millimeter
** Generated by: Abaqus/CAE 2023.HF4
*Preprint, echo=NO, model=NO, history=NO, contact=NO
**
** PARTS
**
*Part, name=plate
*Node
      1,           0.,          0.5,           0.
      2,           0.,           0.,           0.
      3,         -0.5, 0.000500000024,           0.
      4,         -0.5,          0.5,           0.
      5,           0.,  0.460617006, -2.23517413e-10
      6,           0.,  0.423981756, -2.23517413e-10
      7,           0.,  0.389902532, -2.23517413e-10
      8,           0.,  0.358201027, -2.23517413e-10
      9,           0.,  0.328711361, -2.23517413e-10
     10,           0.,  0.301279157, -2.23517413e-10
     11,           0.,  0.275760919, -2.23517413e-10
     12,           0.,  0.252023071, -2.23517413e-10
     13,           0.,  0.229941428, -2.23517413e-10
     14,           0.,  0.209400415, -2.23517413e-10
     15,           0.,  0.190292552, -2.23517413e-10
     16,           0.,  0.172517851, -2.23517413e-10
     17,           0.,  0.155983284, -2.23517413e-10
     18,           0.,  0.140602335, -2.23517413e-10
     19,           0.,  0.126294509, -2.23517413e-10
     20,           0.,  0.112984948, -2.23517413e-10
** ... 26300 like lines cut
*Element, type=C3D8
   1,  355,  381,  415,  408,  852,  878,  912,  905
   2,   13,   12,   87,   85,  510,  509,  584,  582
   3,  397,  366,  363,  393,  894,  863,  860,  890
   4,   75,  381,  355,   76,  572,  878,  852,  573
   5,  368,  370,  406,  400,  865,  867,  903,  897
   6,  174,  296,  471,  299,  671,  793,  968,  796
   7,  137,  139,  172,  170,  634,  636,  669,  667
   8,   52,   95,   86,   53,  549,  592,  583,  550
   9,   50,   92,   94,   51,  547,  589,  591,  548
  10,   95,   52,   51,   94,  592,  549,  548,  591
  11,   92,   50,   49,   90,  589,  547,  546,  587
  12,  103,  101,   21,   20,  600,  598,  518,  517
  13,   22,   21,  101,   99,  519,  518,  598,  596
  14,  154,  125,   99,  159,  651,  622,  596,  656
  15,   24,   23,  125,  122,  521,  520,  622,  619
  16,  122,  120,   25,   24,  619,  617,  522,  521
  17,   26,   25,  120,  118,  523,  522,  617,  615
  18,  183,  150,  118,  187,  680,  647,  615,  684
  19,   28,   27,  150,  147,  525,  524,  647,  644
  20,   29,   28,  147,  145,  526,  525,  644,  642
** ... 20648 like lines cut
*Nset, nset=whole_plate, generate
     1,  26320,      1
*Elset, elset=whole_plate, generate
     1,  20668,      1
** Section: Section-1
*Solid Section, elset=whole_plate, material=user_material
,
*End Part
**  
**
** ASSEMBLY
**
*Assembly, name=Assembly
**  
*Instance, name=plate-1, part=plate
*End Instance
**  
*Nset, nset=Set-6, instance=plate-1
 2505, 2506, 2507, 2508, 2509, 2510, 2511, 2512, 2513, 2514, 2515, 2516, 2521, 2522, 2524, 2526
 2531, 2534, 2535, 2648, 2649, 2650, 2651, 2652, 2653, 2654, 2655, 2656, 2657, 2658, 2851, 2852
 2853, 2854, 2855, 2856, 2857, 2858, 2859, 2860, 2861, 2862, 2863, 2864, 2865, 2866, 2867, 2868
 2869, 2870, 2871, 2872, 2873, 2874, 2875, 2876, 2877, 2878, 2879, 2880, 2881, 2882, 2883, 2884
 3000, 3001, 3002, 3003, 3004, 3005, 7167, 7168, 7169, 7170, 7171, 7172, 7173, 7174, 7175, 7176
 7177, 7178, 7179, 7180, 7181, 7182, 7183, 7184, 7185, 7186, 7187, 7188, 7189, 7190, 7191, 7192
 7193, 7194, 7195, 7196, 7197, 7198, 7199, 7200, 7201, 7202, 7350, 7351, 7371, 8151, 8152, 8153
 8154, 8155, 8156, 8157, 8158, 8159, 8160, 8209, 8210, 8211, 8212, 8213, 8235, 8236, 8237, 8238
 8239, 8240, 8241, 8242, 8243, 8244, 8245
*Elset, elset=Set-6, instance=plate-1
  1841,  1848,  1849,  1850,  2146,  2157,  2163,  2165,  2167,  2175,  2176,  2177,  2181,  2287,  2294,  2295
  2296,  2592,  2603,  2609,  2611,  2613,  2621,  2622,  2623,  2627,  2733,  2740,  2741,  2742,  3038,  3049
  3055,  3057,  3059,  3067,  3068,  3069,  3073,  3179,  3186,  3187,  3188,  3484,  3495,  3501,  3503,  3505
  3513,  3514,  3515,  3519,  3617,  3629,  3683,  3689,  3693,  3697,  3699,  3863,  3864,  3865,  3866,  3867
  5691,  5757,  5769,  5823,  5829,  5833,  5837,  5839,  6003,  6004,  6005,  6006,  6007,  7831,  7897,  7909
  7963,  7969,  7973,  7977,  7979,  8143,  8144,  8145,  8146,  8147,  9971, 10037, 10049, 10103, 10109, 10113
 10117, 10119, 10283, 10284, 10285, 10286, 10287, 12111
*Nset, nset=bottom_side, instance=plate-1
 2505, 2506, 2507, 2508, 2509, 2510, 2511, 2512, 2513, 2514, 2515, 2516, 2521, 2522, 2524, 2526
 2531, 2534, 2535, 2648, 2649, 2650, 2651, 2652, 2653, 2654, 2655, 2656, 2657, 2658, 2851, 2852
 2853, 2854, 2855, 2856, 2857, 2858, 2859, 2860, 2861, 2862, 2863, 2864, 2865, 2866, 2867, 2868
 2869, 2870, 2871, 2872, 2873, 2874, 2875, 2876, 2877, 2878, 2879, 2880, 2881, 2882, 2883, 2884
 3000, 3001, 3002, 3003, 3004, 3005, 7167, 7168, 7169, 7170, 7171, 7172, 7173, 7174, 7175, 7176
 7177, 7178, 7179, 7180, 7181, 7182, 7183, 7184, 7185, 7186, 7187, 7188, 7189, 7190, 7191, 7192
 7193, 7194, 7195, 7196, 7197, 7198, 7199, 7200, 7201, 7202, 7350, 7351, 7371, 8151, 8152, 8153
 8154, 8155, 8156, 8157, 8158, 8159, 8160, 8209, 8210, 8211, 8212, 8213, 8235, 8236, 8237, 8238
 8239, 8240, 8241, 8242, 8243, 8244, 8245
*Elset, elset=bottom_side, instance=plate-1
  1841,  1848,  1849,  1850,  2146,  2157,  2163,  2165,  2167,  2175,  2176,  2177,  2181,  2287,  2294,  2295
  2296,  2592,  2603,  2609,  2611,  2613,  2621,  2622,  2623,  2627,  2733,  2740,  2741,  2742,  3038,  3049
  3055,  3057,  3059,  3067,  3068,  3069,  3073,  3179,  3186,  3187,  3188,  3484,  3495,  3501,  3503,  3505
  3513,  3514,  3515,  3519,  3617,  3629,  3683,  3689,  3693,  3697,  3699,  3863,  3864,  3865,  3866,  3867
  5691,  5757,  5769,  5823,  5829,  5833,  5837,  5839,  6003,  6004,  6005,  6006,  6007,  7831,  7897,  7909
  7963,  7969,  7973,  7977,  7979,  8143,  8144,  8145,  8146,  8147,  9971, 10037, 10049, 10103, 10109, 10113
 10117, 10119, 10283, 10284, 10285, 10286, 10287, 12111
*Nset, nset=left_side, instance=plate-1
    3,    4,   62,   63,   64,   65,   66,   67,   68,   69,   70,   71,   72,  500,  501,  559
  560,  561,  562,  563,  564,  565,  566,  567,  568,  569,  997,  998, 1056, 1057, 1058, 1059
 1060, 1061, 1062, 1063, 1064, 1065, 1066, 1494, 1495, 1553, 1554, 1555, 1556, 1557, 1558, 1559
 1560, 1561, 1562, 1563, 1991, 1992, 2050, 2051, 2052, 2053, 2054, 2055, 2056, 2057, 2058, 2059
 2060, 2494, 2495, 2496, 2497, 2498, 2499, 2500, 2501, 2502, 2503, 2504, 2522, 2523, 2525, 2526
 2529, 2530, 2536, 2818, 2819, 2820, 2821, 2822, 2823, 2824, 2825, 2826, 2827, 2828, 2829, 2830
 2831, 2832, 2833, 2834, 2835, 2836, 2837, 2838, 2839, 2840, 2841, 2842, 2843, 2844, 2845, 2846
 2847, 2848, 2849, 2850, 3003, 3004, 3005, 3006, 3007, 3008, 3072, 3073, 3074, 3075, 3076, 3077
 3078, 3079
*Elset, elset=left_side, instance=plate-1
   47,   48,   52,   54,   57,  132,  312,  332,  333,  342,  346,  348,  501,  502,  506,  508
  511,  586,  766,  786,  787,  796,  800,  802,  955,  956,  960,  962,  965, 1040, 1220, 1240
 1241, 1250, 1254, 1256, 1409, 1410, 1414, 1416, 1419, 1494, 1674, 1694, 1695, 1704, 1708, 1710
 1850, 1851, 1861, 2114, 2152, 2162, 2168, 2179, 2186, 2190, 2191, 2193, 2296, 2297, 2307, 2560
 2598, 2608, 2614, 2625, 2632, 2636, 2637, 2639, 2742, 2743, 2753, 3006, 3044, 3054, 3060, 3071
 3078, 3082, 3083, 3085, 3188, 3189, 3199, 3452, 3490, 3500, 3506, 3517, 3524, 3528, 3529, 3531
*Nset, nset=right_side, instance=plate-1
  7203,  7204,  7205,  7206,  7207,  7208,  7209,  7210,  7211,  7212,  7213,  7214,  7215,  7216,  7217,  7218
  7219,  7220,  7221,  7222,  7223,  7224,  7225,  7226,  7227,  7228,  7229,  7230,  7231,  7232,  7233,  7234
  7235,  7236,  7237,  7238,  7239,  7240,  7241,  7242,  7243,  7244,  7245,  7246,  7247,  7248,  7249,  7250
  7251,  7252,  7253,  7254,  7255,  7256,  7257,  7258,  7259,  7260,  7261,  7262,  7263,  7264,  7265,  7266
  7267,  7268,  7269,  7270,  7271,  7272,  7273,  7274,  7275,  7276,  7277,  7278,  7279,  7280,  7281,  7282
  7283,  7284,  7285,  7286,  7349,  7350,  7351,  7352,  7363,  7365,  7366,  7368,  7369,  7372,  7374,  8105
  8106,  8107,  8108,  8109,  8110,  8111,  8112,  8113,  8114,  8115,  8116,  8117,  8118,  8119,  8139,  8140
  8141,  8142,  8143,  8144,  8145,  8146,  8147,  8148,  8149,  8150,  8161,  8162,  8163,  8164,  8165,  8166
  8167,  8168,  8169,  8170,  8171,  8172,  8173,  8174,  8175,  8176,  8177,  8202,  8203,  8204,  8205,  8206
  8207,  8208,  8243,  8244,  8245,  8246, 15929, 15930, 15931, 15932, 15933, 15934, 15935, 15936, 15937, 15938
 15939, 15940, 15941, 15942, 15943, 15944, 15945, 15946, 15947, 15948, 15949, 15950, 15951, 15952, 15953, 15954
 15955, 15956, 15969, 15970, 15971, 15984, 15985, 15986, 15987, 15988, 15989, 15990, 15991, 15992, 15993, 15994
 15995, 15996, 15997, 15998, 15999, 16000, 16001, 16002, 16003, 16004, 16005, 16006, 16007, 16008, 16009, 16010
 16011, 16026, 16027, 20070, 20071, 20072, 20073, 20074, 20075, 20076, 20077, 20078, 20079, 20080, 20081, 20082
 20083, 20084, 20085, 20086, 20087, 20088, 20089, 20090, 20091, 20092, 20093, 20094, 20095, 20096, 20097, 20098
 20099, 20100, 20101, 20102, 20103, 20104, 20105, 20106, 20107, 20108, 20109, 20110, 20111, 20112, 20113, 20114
 20115, 20116, 20117, 20118, 20119, 20120, 20121, 20122, 20123, 20124, 20125, 20126, 20127, 20128, 20129, 20130
 20131, 20132, 20133, 20134, 20135, 20136, 20137, 20138, 20139, 20140, 20141, 20142, 20143, 20144, 20145, 20146
 20147, 20148, 20149, 20150, 20151, 20152, 20153
*Elset, elset=right_side, instance=plate-1
  3608,  3609,  3610,  3672,  3684,  3690,  3694,  3698,  3766,  3768,  3849,  3850,  3852,  3853,  3854,  3855
  3856,  3857,  3858,  3859,  3860,  3861,  3862,  3863,  3885,  3959,  4083,  5661,  5696,  5748,  5749,  5750
  5812,  5824,  5830,  5834,  5838,  5906,  5908,  5989,  5990,  5992,  5993,  5994,  5995,  5996,  5997,  5998
  5999,  6000,  6001,  6002,  6003,  6025,  6099,  6223,  7801,  7836,  7888,  7889,  7890,  7952,  7964,  7970
  7974,  7978,  8046,  8048,  8129,  8130,  8132,  8133,  8134,  8135,  8136,  8137,  8138,  8139,  8140,  8141
  8142,  8143,  8165,  8239,  8363,  9941,  9976, 10028, 10029, 10030, 10092, 10104, 10110, 10114, 10118, 10186
 10188, 10269, 10270, 10272, 10273, 10274, 10275, 10276, 10277, 10278, 10279, 10280, 10281, 10282, 10283, 10305
 10379, 10503, 12081, 12116, 12170, 12172, 12234, 12246, 12252, 12257, 12261, 12394, 12395, 12396, 12397, 12398
 12399, 12400, 12401, 12402, 12403, 12404, 12405, 12406, 12407, 12408, 12409, 12484, 12485, 12523, 12648, 14203
 14242, 14297, 14299, 14361, 14373, 14379, 14384, 14388, 14521, 14522, 14523, 14524, 14525, 14526, 14527, 14528
 14529, 14530, 14531, 14532, 14533, 14534, 14535, 14536, 14611, 14612, 14650, 14775, 16330, 16369, 16424, 16426
 16488, 16500, 16506, 16511, 16515, 16648, 16649, 16650, 16651, 16652, 16653, 16654, 16655, 16656, 16657, 16658
 16659, 16660, 16661, 16662, 16663, 16738, 16739, 16777, 16902, 18457, 18496, 18551, 18553, 18615, 18627, 18633
 18638, 18642, 18775, 18776, 18777, 18778, 18779, 18780, 18781, 18782, 18783, 18784, 18785, 18786, 18787, 18788
 18789, 18790, 18865, 18866, 18904, 19029, 20584, 20623
*Nset, nset=top_side, instance=plate-1
     1,     4,    73,    74,    75,    76,    77,    78,    79,    80,    81,    82,    83,    84,   498,   501
   570,   571,   572,   573,   574,   575,   576,   577,   578,   579,   580,   581,   995,   998,  1067,  1068
  1069,  1070,  1071,  1072,  1073,  1074,  1075,  1076,  1077,  1078,  1492,  1495,  1564,  1565,  1566,  1567
  1568,  1569,  1570,  1571,  1572,  1573,  1574,  1575,  1989,  1992,  2061,  2062,  2063,  2064,  2065,  2066
  2067,  2068,  2069,  2070,  2071,  2072, 15957, 15958, 15959, 15960, 15961, 15962, 15963, 15964, 15965, 15966
 15967, 15968, 15969, 15970, 15971, 15972, 15973, 15974, 15975, 15976, 15977, 15978, 15979, 15980, 15981, 15982
 15983, 16026, 16027, 20034, 20035, 20036, 20037, 20038, 20039, 20040, 20041, 20042, 20043, 20044, 20045, 20046
 20047, 20048, 20049, 20050, 20051, 20052, 20053, 20054, 20055, 20056, 20057, 20058, 20059, 20060, 20061, 20062
 20063, 20064, 20065, 20066, 20067, 20068, 20069
*Elset, elset=top_side, instance=plate-1
     4,    51,    57,    68,   282,   283,   303,   318,   335,   336,   338,   353,   354,   458,   505,   511
   522,   736,   737,   757,   772,   789,   790,   792,   807,   808,   912,   959,   965,   976,  1190,  1191
  1211,  1226,  1243,  1244,  1246,  1261,  1262,  1366,  1413,  1419,  1430,  1644,  1645,  1665,  1680,  1697
  1698,  1700,  1715,  1716, 12178, 12179, 12191, 12245, 12251, 12255, 12260, 12262, 12395, 12413, 12414, 12415
 14237, 14305, 14306, 14318, 14372, 14378, 14382, 14387, 14389, 14522, 14540, 14541, 14542, 16364, 16432, 16433
 16445, 16499, 16505, 16509, 16514, 16516, 16649, 16667, 16668, 16669, 18491, 18559, 18560, 18572, 18626, 18632
 18636, 18641, 18643, 18776, 18794, 18795, 18796, 20618
*Nset, nset=whole_plate, instance=plate-1, generate
     1,  26320,      1
*Elset, elset=whole_plate, instance=plate-1, generate
     1,  20668,      1
*End Assembly
*Amplitude, name=Amp-1
             0.,              1.,       10000000.,              1.
** 
** MATERIALS
** 
*Material, name=user_material
*Density
1.,
*Depvar
     15,
*Specific Heat
1.,
*User Material, constants=1
0.,
** 
** BOUNDARY CONDITIONS
** 
** Name: BC-1 Type: Displacement/Rotation
*Boundary
bottom_side, 1, 1
bottom_side, 2, 2
bottom_side, 3, 3
** 
** PREDEFINED FIELDS
** 
** Name: Predefined Field-1   Type: Temperature
*Initial Conditions, type=TEMPERATURE
whole_plate, 0.5
** ----------------------------------------------------------------
** 
** STEP: Step-1
** 
*Step, name=Step-1, nlgeom=YES, amplitude=RAMP, inc=1000000
*Coupled Temperature-displacement, creep=none
10000., 1e+07, 
** 
** BOUNDARY CONDITIONS
** 
** Name: BC-2 Type: Displacement/Rotation
*Boundary
top_side, 2, 2, 0.01
** Name: BC-3 Type: Temperature
*Boundary, amplitude=Amp-1
bottom_side, 11, 11, 0.5
** Name: BC-4 Type: Temperature
*Boundary, amplitude=Amp-1
left_side, 11, 11, 0.5
** Name: BC-5 Type: Temperature
*Boundary, amplitude=Amp-1
right_side, 11, 11, 0.5
** 
** OUTPUT REQUESTS
** 
*Restart, write, frequency=0
** 
** FIELD OUTPUT: F-Output-1
** 
*Output, field
*Node Output
NT, RF, U
*Element Output, directions=YES
SDV, 
** 
** HISTORY OUTPUT: H-Output-1
** 
*Output, history, frequency=10
*Node Output, nset=bottom_side
RF2, 
** 
** HISTORY OUTPUT: H-Output-2
** 
*Node Output, nset=top_side
U2, 
*End Step
