1

   Abaqus 2023.HF4                                  Date 12-Aug-2024   Time 21:12:29
   For use by AALTO UNIVERSITY under license from Dassault Systemes or its subsidiary.

                                                                                 
                                                                                 
 STEP    1     INCREMENT     1     STEP TIME    0.00    


                        S T E P       1     C O U P L E D - T E M P E R A T U R E - D I S P L A C E M E N T   A N A L Y S I S


                                                                                          

          FIXED TIME INCREMENTS
          TIME INCREMENT IS                                    1.000E+04
          TIME PERIOD IS                                       1.000E+07

          CREEP AND SWELLING EFFECTS ARE OMITTED IN THIS STEP
          THE RATE DEPENDENCY WILL BE CONSIDERED IN THIS STEP

          CREEP AND SWELLING EFFECTS WILL BE IGNORED.

 CONVERGENCE TOLERANCE PARAMETERS FOR FORCE    
     CRITERION FOR RESIDUAL FORCE     FOR A NONLINEAR PROBLEM          5.000E-03
     CRITERION FOR DISP.    CORRECTION IN A NONLINEAR PROBLEM          1.000E-02
     INITIAL VALUE OF TIME AVERAGE FORCE                               1.000E-02
     AVERAGE FORCE     IS TIME AVERAGE FORCE    
     ALTERNATE CRIT. FOR RESIDUAL FORCE     FOR A NONLINEAR PROBLEM    2.000E-02
     CRITERION FOR ZERO FORCE     RELATIVE TO TIME AVRG. FORCE         1.000E-05
     CRITERION FOR RESIDUAL FORCE     WHEN THERE IS ZERO FLUX          1.000E-05
     CRITERION FOR DISP.    CORRECTION WHEN THERE IS ZERO FLUX         1.000E-03
     CRITERION FOR RESIDUAL FORCE     FOR A LINEAR INCREMENT           1.000E-08
     FIELD CONVERSION RATIO                                             1.00    
     CRITERION FOR ZERO FORCE     REL. TO TIME AVRG. MAX. FORCE        1.000E-05
     CRITERION FOR ZERO DISP.    RELATIVE TO CHARACTERISTIC LENGTH     1.000E-08

 CONVERGENCE TOLERANCE PARAMETERS FOR HEAT FLUX
     CRITERION FOR RESIDUAL HEAT FLUX FOR A NONLINEAR PROBLEM          5.000E-03
     CRITERION FOR TEMP.    CORRECTION IN A NONLINEAR PROBLEM          1.000E-02
     INITIAL VALUE OF TIME AVERAGE HEAT FLUX                           1.000E-02
     AVERAGE HEAT FLUX IS TIME AVERAGE HEAT FLUX
     ALTERNATE CRIT. FOR RESIDUAL HEAT FLUX FOR A NONLINEAR PROBLEM    2.000E-02
     CRITERION FOR ZERO HEAT FLUX RELATIVE TO TIME AVRG. HEAT FLUX     1.000E-05
     CRITERION FOR RESIDUAL HEAT FLUX WHEN THERE IS ZERO FLUX          1.000E-05
     CRITERION FOR TEMP.    CORRECTION WHEN THERE IS ZERO FLUX         1.000E-03
     CRITERION FOR RESIDUAL HEAT FLUX FOR A LINEAR INCREMENT           1.000E-08
     FIELD CONVERSION RATIO                                             1.00    
     CRITERION FOR ZERO HEAT FLUX REL. TO TIME AVRG. MAX. HEAT FLUX    1.000E-05

     VOLUMETRIC STRAIN COMPATIBILITY TOLERANCE FOR HYBRID SOLIDS       1.000E-05
     AXIAL STRAIN COMPATIBILITY TOLERANCE FOR HYBRID BEAMS             1.000E-05
     TRANS. SHEAR STRAIN COMPATIBILITY TOLERANCE FOR HYBRID BEAMS      1.000E-05
     SOFT CONTACT CONSTRAINT COMPATIBILITY TOLERANCE FOR P>P0          5.000E-03
     SOFT CONTACT CONSTRAINT COMPATIBILITY TOLERANCE FOR P=0.0         0.100    
     CONTACT FORCE ERROR TOLERANCE FOR CONVERT SDI=YES                 1.00    
     DISPLACEMENT COMPATIBILITY TOLERANCE FOR DCOUP ELEMENTS           1.000E-05
     ROTATION COMPATIBILITY TOLERANCE FOR DCOUP ELEMENTS               1.000E-05

 EQUILIBRIUM WILL BE CHECKED FOR SEVERE DISCONTINUITY ITERATIONS

 ITERATION CONTROL PARAMETERS:
     FIRST EQUILIBRIUM ITERATION FOR CONSECUTIVE DIVERGENCE CHECK              4
     EQUILIBRIUM ITERATION AFTER WHICH ALTERNATE RESIDUAL IS USED              9
     MAXIMUM EQUILIBRIUM ITERATIONS ALLOWED                                   16
     MAXIMUM ITERATIONS FOR SEVERE DISCONTINUITIES                            12
     GLOBAL STABILIZATION CONTROL IS NOT USED

          PRINT OF INCREMENT NUMBER, TIME, ETC., EVERY    1  INCREMENTS

     THE MAXIMUM NUMBER OF INCREMENTS IN THIS STEP IS                 1000000

          UNSYMMETRIC MATRIX STORAGE AND SOLUTION WILL BE USED

     LINEAR EXTRAPOLATION WILL BE USED

     CHARACTERISTIC ELEMENT LENGTH     1.066E-02

     DETAILS REGARDING ACTUAL SOLUTION WAVEFRONT REQUESTED

     DETAILED OUTPUT OF DIAGNOSTICS TO DATABASE REQUESTED

     PRINT OF INCREMENT NUMBER, TIME, ETC., TO THE MESSAGE FILE EVERY     1  INCREMENTS

     ELEMENT OPERATIONS WILL BE CARRIED OUT IN PARALLEL USING   2 THREADS ON 1 DOMAIN

     PARALLEL CONTACT TRACKING ENABLED


     COLLECTING MODEL CONSTRAINT INFORMATION FOR OVERCONSTRAINT CHECKS

     COLLECTING STEP CONSTRAINT INFORMATION FOR OVERCONSTRAINT CHECKS


  INCREMENT     1 STARTS. ATTEMPT NUMBER  1, TIME INCREMENT  1.000E+04
 
     INITIAL ELEMENT LOAD BALANCE
            DOMAIN    1     THREAD    NUMBER OF ELEMENTS
                              1            5280
                              2            5528
 
	UNSYMMETRIC NEW DIRECT SPARSE SOLVER RUNNING ON
 	1 HOST x 1 MPI RANK PER HOST x 2 THREADS PER RANK
        NUMBER OF EQUATIONS:  65612
        NUMBER OF RHS:        1
        NUMBER OF FLOPS:      9.693e+09
        SOLVER ELAPSED TIME:  186ms

               CONVERGENCE CHECKS FOR EQUILIBRIUM ITERATION     1


 AVERAGE FORCE                      1.271E-03   TIME AVG. FORCE       1.271E-03
 LARGEST SCALED RESIDUAL FORCE     -1.395E-14   AT NODE       6388   DOF  2
   INSTANCE: PLATE-1                                                                         
  CORRESPONDING RESIDUAL FORCE     -1.395E-14
 LARGEST INCREMENT OF DISP.         1.065E-05   AT NODE         38   DOF  2
   INSTANCE: PLATE-1                                                                         
 LARGEST CORRECTION TO DISP.        1.065E-05   AT NODE         38   DOF  2
   INSTANCE: PLATE-1                                                                         
          THE FORCE     EQUILIBRIUM RESPONSE WAS LINEAR IN THIS INCREMENT

 AVERAGE HEAT FLUX                  2.417E-16   TIME AVG. HEAT FLUX   1.000E-02
 LARGEST RESIDUAL HEAT FLUX         2.165E-15   AT NODE       3583   DOF 11
   INSTANCE: PLATE-1                                                                         
 LARGEST INCREMENT OF TEMP.         9.762E-15   AT NODE       1335   DOF 11
   INSTANCE: PLATE-1                                                                         
 LARGEST CORRECTION TO TEMP.        9.762E-15   AT NODE       1335   DOF 11
   INSTANCE: PLATE-1                                                                         
          THERE IS ZERO HEAT FLUX EVERYWHERE
 

 ***WARNING: THERE IS ZERO HEAT FLUX EVERYWHERE IN THE MODEL BASED ON THE 
             DEFAULT CRITERION. PLEASE CHECK THE VALUE OF THE AVERAGE HEAT FLUX 
             DURING THE CURRENT ITERATION TO VERIFY THAT THE HEAT FLUX IS SMALL 
             ENOUGH TO BE TREATED AS ZERO. IF NOT, PLEASE USE THE SOLUTION 
             CONTROLS TO RESET THE CRITERION FOR ZERO HEAT FLUX.

 ITERATION SUMMARY FOR THE INCREMENT:   1 TOTAL ITERATIONS, OF WHICH
   0 ARE SEVERE DISCONTINUITY ITERATIONS AND  1 ARE EQUILIBRIUM ITERATIONS.

 TIME INCREMENT COMPLETED  1.000E+04,  FRACTION OF STEP COMPLETED  1.000E-03
 STEP TIME COMPLETED       1.000E+04,  TOTAL TIME COMPLETED        1.000E+04


  INCREMENT     2 STARTS. ATTEMPT NUMBER  1, TIME INCREMENT  1.000E+04
 
	UNSYMMETRIC NEW DIRECT SPARSE SOLVER RUNNING ON
 	1 HOST x 1 MPI RANK PER HOST x 2 THREADS PER RANK
        NUMBER OF EQUATIONS:  65612
        NUMBER OF RHS:        1
        NUMBER OF FLOPS:      9.693e+09
        SOLVER ELAPSED TIME:  21ms

               CONVERGENCE CHECKS FOR EQUILIBRIUM ITERATION     1


 AVERAGE FORCE                      6.389E-03   TIME AVG. FORCE       3.830E-03
 LARGEST SCALED RESIDUAL FORCE      5.065E-11   AT NODE       6707   DOF  3
   INSTANCE: PLATE-1                                                                         
  CORRESPONDING RESIDUAL FORCE      5.065E-11
 LARGEST INCREMENT OF DISP.         1.065E-05   AT NODE         38   DOF  2
   INSTANCE: PLATE-1                                                                         
 LARGEST CORRECTION TO DISP.        5.671E-06   AT NODE       6707   DOF  3
   INSTANCE: PLATE-1                                                                         
 ESTIMATE OF DISP.    CORRECTION    6.160E-09
 FORCE     EQUILIB. ACCEPTED BASED ON SMALL RESIDUAL AND ESTIMATED CORRECTION

 AVERAGE HEAT FLUX                  3.960E-06   TIME AVG. HEAT FLUX   3.960E-06
 LARGEST RESIDUAL HEAT FLUX         1.295E-04   AT NODE          8   DOF 11
   INSTANCE: PLATE-1                                                                         
 LARGEST INCREMENT OF TEMP.         1.114E-02   AT NODE          8   DOF 11
   INSTANCE: PLATE-1                                                                         
 LARGEST CORRECTION TO TEMP.        1.114E-02   AT NODE          8   DOF 11
   INSTANCE: PLATE-1                                                                         
          HEAT FLUX EQUILIBRIUM NOT ACHIEVED WITHIN TOLERANCE.
 
	UNSYMMETRIC NEW DIRECT SPARSE SOLVER RUNNING ON
 	1 HOST x 1 MPI RANK PER HOST x 2 THREADS PER RANK
        NUMBER OF EQUATIONS:  65612
        NUMBER OF RHS:        1
        NUMBER OF FLOPS:      9.693e+09
        SOLVER ELAPSED TIME:  204ms

               CONVERGENCE CHECKS FOR EQUILIBRIUM ITERATION     2


 AVERAGE FORCE                      6.389E-03   TIME AVG. FORCE       3.830E-03
 LARGEST SCALED RESIDUAL FORCE      1.640E-13   AT NODE       6707   DOF  3
   INSTANCE: PLATE-1                                                                         
  CORRESPONDING RESIDUAL FORCE      1.640E-13
 LARGEST INCREMENT OF DISP.         1.065E-05   AT NODE         38   DOF  2
   INSTANCE: PLATE-1                                                                         
 LARGEST CORRECTION TO DISP.        2.945E-09   AT NODE       6707   DOF  3
   INSTANCE: PLATE-1                                                                         
          THE FORCE     EQUILIBRIUM EQUATIONS HAVE CONVERGED

 AVERAGE HEAT FLUX                  3.958E-06   TIME AVG. HEAT FLUX   3.958E-06
 LARGEST RESIDUAL HEAT FLUX        -2.897E-15   AT NODE      11986   DOF 11
   INSTANCE: PLATE-1                                                                         
 LARGEST INCREMENT OF TEMP.         1.120E-02   AT NODE          8   DOF 11
   INSTANCE: PLATE-1                                                                         
 LARGEST CORRECTION TO TEMP.        6.035E-05   AT NODE          8   DOF 11
   INSTANCE: PLATE-1                                                                         
          THE HEAT FLUX EQUILIBRIUM EQUATIONS HAVE CONVERGED

 ITERATION SUMMARY FOR THE INCREMENT:   2 TOTAL ITERATIONS, OF WHICH
   0 ARE SEVERE DISCONTINUITY ITERATIONS AND  2 ARE EQUILIBRIUM ITERATIONS.

 TIME INCREMENT COMPLETED  1.000E+04,  FRACTION OF STEP COMPLETED  2.000E-03
 STEP TIME COMPLETED       2.000E+04,  TOTAL TIME COMPLETED        2.000E+04


  INCREMENT     3 STARTS. ATTEMPT NUMBER  1, TIME INCREMENT  1.000E+04
 
	UNSYMMETRIC NEW DIRECT SPARSE SOLVER RUNNING ON
 	1 HOST x 1 MPI RANK PER HOST x 2 THREADS PER RANK
        NUMBER OF EQUATIONS:  65612
        NUMBER OF RHS:        1
        NUMBER OF FLOPS:      9.693e+09
        SOLVER ELAPSED TIME:  163ms

               CONVERGENCE CHECKS FOR EQUILIBRIUM ITERATION     1


 AVERAGE FORCE                      9.583E-03   TIME AVG. FORCE       5.748E-03
 LARGEST SCALED RESIDUAL FORCE      1.306E-12   AT NODE       6707   DOF  3
   INSTANCE: PLATE-1                                                                         
  CORRESPONDING RESIDUAL FORCE      1.306E-12
 LARGEST INCREMENT OF DISP.         1.703E-05   AT NODE       6707   DOF  3
   INSTANCE: PLATE-1                                                                         
 LARGEST CORRECTION TO DISP.        1.136E-05   AT NODE       6707   DOF  3
   INSTANCE: PLATE-1                                                                         
          THE FORCE     EQUILIBRIUM RESPONSE WAS LINEAR IN THIS INCREMENT

 AVERAGE HEAT FLUX                  7.957E-06   TIME AVG. HEAT FLUX   5.958E-06
 LARGEST RESIDUAL HEAT FLUX        -2.527E-15   AT NODE       1023   DOF 11
   INSTANCE: PLATE-1                                                                         
 LARGEST INCREMENT OF TEMP.         1.132E-02   AT NODE          8   DOF 11
   INSTANCE: PLATE-1                                                                         
 LARGEST CORRECTION TO TEMP.        1.215E-04   AT NODE          8   DOF 11
   INSTANCE: PLATE-1                                                                         
          THE HEAT FLUX EQUILIBRIUM RESPONSE WAS LINEAR IN THIS INCREMENT

 ITERATION SUMMARY FOR THE INCREMENT:   1 TOTAL ITERATIONS, OF WHICH
   0 ARE SEVERE DISCONTINUITY ITERATIONS AND  1 ARE EQUILIBRIUM ITERATIONS.

 TIME INCREMENT COMPLETED  1.000E+04,  FRACTION OF STEP COMPLETED  3.000E-03
 STEP TIME COMPLETED       3.000E+04,  TOTAL TIME COMPLETED        3.000E+04


  INCREMENT     4 STARTS. ATTEMPT NUMBER  1, TIME INCREMENT  1.000E+04
 
	UNSYMMETRIC NEW DIRECT SPARSE SOLVER RUNNING ON
 	1 HOST x 1 MPI RANK PER HOST x 2 THREADS PER RANK
        NUMBER OF EQUATIONS:  65612
        NUMBER OF RHS:        1
        NUMBER OF FLOPS:      9.693e+09
        SOLVER ELAPSED TIME:  19ms

               CONVERGENCE CHECKS FOR EQUILIBRIUM ITERATION     1


 AVERAGE FORCE                      1.278E-02   TIME AVG. FORCE       7.505E-03
 LARGEST SCALED RESIDUAL FORCE      1.037E-10   AT NODE       6707   DOF  3
   INSTANCE: PLATE-1                                                                         
  CORRESPONDING RESIDUAL FORCE      1.037E-10
 LARGEST INCREMENT OF DISP.         2.840E-05   AT NODE       6707   DOF  3
   INSTANCE: PLATE-1                                                                         
 LARGEST CORRECTION TO DISP.        1.137E-05   AT NODE       6707   DOF  3
   INSTANCE: PLATE-1                                                                         
 ESTIMATE OF DISP.    CORRECTION    1.341E-09
 FORCE     EQUILIB. ACCEPTED BASED ON SMALL RESIDUAL AND ESTIMATED CORRECTION

 AVERAGE HEAT FLUX                  1.195E-05   TIME AVG. HEAT FLUX   7.954E-06
 LARGEST RESIDUAL HEAT FLUX         1.118E-06   AT NODE          8   DOF 11
   INSTANCE: PLATE-1                                                                         
 LARGEST INCREMENT OF TEMP.         1.144E-02   AT NODE          8   DOF 11
   INSTANCE: PLATE-1                                                                         
 LARGEST CORRECTION TO TEMP.        1.216E-04   AT NODE          8   DOF 11
   INSTANCE: PLATE-1                                                                         
          HEAT FLUX EQUILIBRIUM NOT ACHIEVED WITHIN TOLERANCE.
 
	UNSYMMETRIC NEW DIRECT SPARSE SOLVER RUNNING ON
 	1 HOST x 1 MPI RANK PER HOST x 2 THREADS PER RANK
        NUMBER OF EQUATIONS:  65612
        NUMBER OF RHS:        1
        NUMBER OF FLOPS:      9.693e+09
        SOLVER ELAPSED TIME:  175ms

               CONVERGENCE CHECKS FOR EQUILIBRIUM ITERATION     2


 AVERAGE FORCE                      1.278E-02   TIME AVG. FORCE       7.505E-03
 LARGEST SCALED RESIDUAL FORCE      6.853E-15   AT NODE       6707   DOF  3
   INSTANCE: PLATE-1                                                                         
  CORRESPONDING RESIDUAL FORCE      6.853E-15
 LARGEST INCREMENT OF DISP.         2.841E-05   AT NODE       6707   DOF  3
   INSTANCE: PLATE-1                                                                         
 LARGEST CORRECTION TO DISP.        5.793E-09   AT NODE       6707   DOF  3
   INSTANCE: PLATE-1                                                                         
          THE FORCE     EQUILIBRIUM EQUATIONS HAVE CONVERGED

 AVERAGE HEAT FLUX                  1.195E-05   TIME AVG. HEAT FLUX   7.954E-06
 LARGEST RESIDUAL HEAT FLUX        -2.503E-15   AT NODE       5411   DOF 11
   INSTANCE: PLATE-1                                                                         
 LARGEST INCREMENT OF TEMP.         1.144E-02   AT NODE          8   DOF 11
   INSTANCE: PLATE-1                                                                         
 LARGEST CORRECTION TO TEMP.        4.243E-07   AT NODE          8   DOF 11
   INSTANCE: PLATE-1                                                                         
          THE HEAT FLUX EQUILIBRIUM EQUATIONS HAVE CONVERGED

 ITERATION SUMMARY FOR THE INCREMENT:   2 TOTAL ITERATIONS, OF WHICH
   0 ARE SEVERE DISCONTINUITY ITERATIONS AND  2 ARE EQUILIBRIUM ITERATIONS.

 TIME INCREMENT COMPLETED  1.000E+04,  FRACTION OF STEP COMPLETED  4.000E-03
 STEP TIME COMPLETED       4.000E+04,  TOTAL TIME COMPLETED        4.000E+04


  INCREMENT     5 STARTS. ATTEMPT NUMBER  1, TIME INCREMENT  1.000E+04
 
	UNSYMMETRIC NEW DIRECT SPARSE SOLVER RUNNING ON
 	1 HOST x 1 MPI RANK PER HOST x 2 THREADS PER RANK
        NUMBER OF EQUATIONS:  65612
        NUMBER OF RHS:        1
        NUMBER OF FLOPS:      9.693e+09
        SOLVER ELAPSED TIME:  217ms

               CONVERGENCE CHECKS FOR EQUILIBRIUM ITERATION     1


 AVERAGE FORCE                      1.597E-02   TIME AVG. FORCE       9.198E-03
 LARGEST SCALED RESIDUAL FORCE      5.111E-12   AT NODE       6707   DOF  3
   INSTANCE: PLATE-1                                                                         
  CORRESPONDING RESIDUAL FORCE      5.111E-12
 LARGEST INCREMENT OF DISP.         3.980E-05   AT NODE       6707   DOF  3
   INSTANCE: PLATE-1                                                                         
 LARGEST CORRECTION TO DISP.        1.139E-05   AT NODE       6707   DOF  3
   INSTANCE: PLATE-1                                                                         
          THE FORCE     EQUILIBRIUM RESPONSE WAS LINEAR IN THIS INCREMENT

 AVERAGE HEAT FLUX                  1.594E-05   TIME AVG. HEAT FLUX   9.952E-06
 LARGEST RESIDUAL HEAT FLUX         2.723E-15   AT NODE       3730   DOF 11
   INSTANCE: PLATE-1                                                                         
 LARGEST INCREMENT OF TEMP.         1.156E-02   AT NODE          8   DOF 11
   INSTANCE: PLATE-1                                                                         
 LARGEST CORRECTION TO TEMP.        1.229E-04   AT NODE          8   DOF 11
   INSTANCE: PLATE-1                                                                         
          THE HEAT FLUX EQUILIBRIUM RESPONSE WAS LINEAR IN THIS INCREMENT

 ITERATION SUMMARY FOR THE INCREMENT:   1 TOTAL ITERATIONS, OF WHICH
   0 ARE SEVERE DISCONTINUITY ITERATIONS AND  1 ARE EQUILIBRIUM ITERATIONS.

 TIME INCREMENT COMPLETED  1.000E+04,  FRACTION OF STEP COMPLETED  5.000E-03
 STEP TIME COMPLETED       5.000E+04,  TOTAL TIME COMPLETED        5.000E+04


  INCREMENT     6 STARTS. ATTEMPT NUMBER  1, TIME INCREMENT  1.000E+04
 
	UNSYMMETRIC NEW DIRECT SPARSE SOLVER RUNNING ON
 	1 HOST x 1 MPI RANK PER HOST x 2 THREADS PER RANK
        NUMBER OF EQUATIONS:  65612
        NUMBER OF RHS:        1
        NUMBER OF FLOPS:      9.693e+09
        SOLVER ELAPSED TIME:  15ms

               CONVERGENCE CHECKS FOR EQUILIBRIUM ITERATION     1


 AVERAGE FORCE                      1.916E-02   TIME AVG. FORCE       1.086E-02
 LARGEST SCALED RESIDUAL FORCE      1.178E-10   AT NODE      11094   DOF  2
   INSTANCE: PLATE-1                                                                         
  CORRESPONDING RESIDUAL FORCE      1.178E-10
 LARGEST INCREMENT OF DISP.         5.121E-05   AT NODE       6707   DOF  3
   INSTANCE: PLATE-1                                                                         
 LARGEST CORRECTION TO DISP.        1.141E-05   AT NODE       6707   DOF  3
   INSTANCE: PLATE-1                                                                         
 ESTIMATE OF DISP.    CORRECTION    6.943E-10
 FORCE     EQUILIB. ACCEPTED BASED ON SMALL RESIDUAL AND ESTIMATED CORRECTION

 AVERAGE HEAT FLUX                  1.995E-05   TIME AVG. HEAT FLUX   1.195E-05
 LARGEST RESIDUAL HEAT FLUX         1.129E-06   AT NODE          8   DOF 11
   INSTANCE: PLATE-1                                                                         
 LARGEST INCREMENT OF TEMP.         1.169E-02   AT NODE          8   DOF 11
   INSTANCE: PLATE-1                                                                         
 LARGEST CORRECTION TO TEMP.        1.233E-04   AT NODE          8   DOF 11
   INSTANCE: PLATE-1                                                                         
          HEAT FLUX EQUILIBRIUM NOT ACHIEVED WITHIN TOLERANCE.
 
	UNSYMMETRIC NEW DIRECT SPARSE SOLVER RUNNING ON
 	1 HOST x 1 MPI RANK PER HOST x 2 THREADS PER RANK
        NUMBER OF EQUATIONS:  65612
        NUMBER OF RHS:        1
        NUMBER OF FLOPS:      9.693e+09
        SOLVER ELAPSED TIME:  186ms

               CONVERGENCE CHECKS FOR EQUILIBRIUM ITERATION     2


 AVERAGE FORCE                      1.916E-02   TIME AVG. FORCE       1.086E-02
 LARGEST SCALED RESIDUAL FORCE      1.869E-14   AT NODE       6707   DOF  3
   INSTANCE: PLATE-1                                                                         
  CORRESPONDING RESIDUAL FORCE      1.869E-14
 LARGEST INCREMENT OF DISP.         5.122E-05   AT NODE       6707   DOF  3
   INSTANCE: PLATE-1                                                                         
 LARGEST CORRECTION TO DISP.        5.753E-09   AT NODE       6707   DOF  3
   INSTANCE: PLATE-1                                                                         
          THE FORCE     EQUILIBRIUM EQUATIONS HAVE CONVERGED

 AVERAGE HEAT FLUX                  1.995E-05   TIME AVG. HEAT FLUX   1.195E-05
 LARGEST RESIDUAL HEAT FLUX         2.882E-15   AT NODE        322   DOF 11
   INSTANCE: PLATE-1                                                                         
 LARGEST INCREMENT OF TEMP.         1.169E-02   AT NODE          8   DOF 11
   INSTANCE: PLATE-1                                                                         
 LARGEST CORRECTION TO TEMP.        4.292E-07   AT NODE          8   DOF 11
   INSTANCE: PLATE-1                                                                         
          THE HEAT FLUX EQUILIBRIUM EQUATIONS HAVE CONVERGED

 ITERATION SUMMARY FOR THE INCREMENT:   2 TOTAL ITERATIONS, OF WHICH
   0 ARE SEVERE DISCONTINUITY ITERATIONS AND  2 ARE EQUILIBRIUM ITERATIONS.

 TIME INCREMENT COMPLETED  1.000E+04,  FRACTION OF STEP COMPLETED  6.000E-03
 STEP TIME COMPLETED       6.000E+04,  TOTAL TIME COMPLETED        6.000E+04


  INCREMENT     7 STARTS. ATTEMPT NUMBER  1, TIME INCREMENT  1.000E+04
 
	UNSYMMETRIC NEW DIRECT SPARSE SOLVER RUNNING ON
 	1 HOST x 1 MPI RANK PER HOST x 2 THREADS PER RANK
        NUMBER OF EQUATIONS:  65612
        NUMBER OF RHS:        1
        NUMBER OF FLOPS:      9.693e+09
        SOLVER ELAPSED TIME:  196ms

               CONVERGENCE CHECKS FOR EQUILIBRIUM ITERATION     1


 AVERAGE FORCE                      2.236E-02   TIME AVG. FORCE       1.250E-02
 LARGEST SCALED RESIDUAL FORCE      1.131E-11   AT NODE       6707   DOF  3
   INSTANCE: PLATE-1                                                                         
  CORRESPONDING RESIDUAL FORCE      1.131E-11
 LARGEST INCREMENT OF DISP.         6.264E-05   AT NODE       6707   DOF  3
   INSTANCE: PLATE-1                                                                         
 LARGEST CORRECTION TO DISP.        1.143E-05   AT NODE       6707   DOF  3
   INSTANCE: PLATE-1                                                                         
          THE FORCE     EQUILIBRIUM RESPONSE WAS LINEAR IN THIS INCREMENT

 AVERAGE HEAT FLUX                  2.396E-05   TIME AVG. HEAT FLUX   1.395E-05
 LARGEST RESIDUAL HEAT FLUX        -3.012E-15   AT NODE        747   DOF 11
   INSTANCE: PLATE-1                                                                         
 LARGEST INCREMENT OF TEMP.         1.181E-02   AT NODE          8   DOF 11
   INSTANCE: PLATE-1                                                                         
 LARGEST CORRECTION TO TEMP.        1.246E-04   AT NODE          8   DOF 11
   INSTANCE: PLATE-1                                                                         
          THE HEAT FLUX EQUILIBRIUM RESPONSE WAS LINEAR IN THIS INCREMENT

 ITERATION SUMMARY FOR THE INCREMENT:   1 TOTAL ITERATIONS, OF WHICH
   0 ARE SEVERE DISCONTINUITY ITERATIONS AND  1 ARE EQUILIBRIUM ITERATIONS.

 TIME INCREMENT COMPLETED  1.000E+04,  FRACTION OF STEP COMPLETED  7.000E-03
 STEP TIME COMPLETED       7.000E+04,  TOTAL TIME COMPLETED        7.000E+04


  INCREMENT     8 STARTS. ATTEMPT NUMBER  1, TIME INCREMENT  1.000E+04
 
	UNSYMMETRIC NEW DIRECT SPARSE SOLVER RUNNING ON
 	1 HOST x 1 MPI RANK PER HOST x 2 THREADS PER RANK
        NUMBER OF EQUATIONS:  65612
        NUMBER OF RHS:        1
        NUMBER OF FLOPS:      9.693e+09
        SOLVER ELAPSED TIME:  14ms

               CONVERGENCE CHECKS FOR EQUILIBRIUM ITERATION     1


 AVERAGE FORCE                      2.555E-02   TIME AVG. FORCE       1.413E-02
 LARGEST SCALED RESIDUAL FORCE      2.860E-10   AT NODE      11094   DOF  2
   INSTANCE: PLATE-1                                                                         
  CORRESPONDING RESIDUAL FORCE      2.860E-10
 LARGEST INCREMENT OF DISP.         7.409E-05   AT NODE       6707   DOF  3
   INSTANCE: PLATE-1                                                                         
 LARGEST CORRECTION TO DISP.        1.144E-05   AT NODE       6707   DOF  3
   INSTANCE: PLATE-1                                                                         
 ESTIMATE OF DISP.    CORRECTION    1.094E-09
 FORCE     EQUILIB. ACCEPTED BASED ON SMALL RESIDUAL AND ESTIMATED CORRECTION

 AVERAGE HEAT FLUX                  2.797E-05   TIME AVG. HEAT FLUX   1.595E-05
 LARGEST RESIDUAL HEAT FLUX         1.138E-06   AT NODE          8   DOF 11
   INSTANCE: PLATE-1                                                                         
 LARGEST INCREMENT OF TEMP.         1.194E-02   AT NODE          8   DOF 11
   INSTANCE: PLATE-1                                                                         
 LARGEST CORRECTION TO TEMP.        1.249E-04   AT NODE          8   DOF 11
   INSTANCE: PLATE-1                                                                         
          HEAT FLUX EQUILIBRIUM NOT ACHIEVED WITHIN TOLERANCE.
 
	UNSYMMETRIC NEW DIRECT SPARSE SOLVER RUNNING ON
 	1 HOST x 1 MPI RANK PER HOST x 2 THREADS PER RANK
        NUMBER OF EQUATIONS:  65612
        NUMBER OF RHS:        1
        NUMBER OF FLOPS:      9.693e+09
        SOLVER ELAPSED TIME:  195ms

               CONVERGENCE CHECKS FOR EQUILIBRIUM ITERATION     2


 AVERAGE FORCE                      2.555E-02   TIME AVG. FORCE       1.413E-02
 LARGEST SCALED RESIDUAL FORCE      3.592E-14   AT NODE       6707   DOF  3
   INSTANCE: PLATE-1                                                                         
  CORRESPONDING RESIDUAL FORCE      3.592E-14
 LARGEST INCREMENT OF DISP.         7.409E-05   AT NODE       6707   DOF  3
   INSTANCE: PLATE-1                                                                         
 LARGEST CORRECTION TO DISP.        5.782E-09   AT NODE       6707   DOF  3
   INSTANCE: PLATE-1                                                                         
          THE FORCE     EQUILIBRIUM EQUATIONS HAVE CONVERGED

 AVERAGE HEAT FLUX                  2.797E-05   TIME AVG. HEAT FLUX   1.595E-05
 LARGEST RESIDUAL HEAT FLUX         2.558E-15   AT NODE       5400   DOF 11
   INSTANCE: PLATE-1                                                                         
 LARGEST INCREMENT OF TEMP.         1.194E-02   AT NODE          8   DOF 11
   INSTANCE: PLATE-1                                                                         
 LARGEST CORRECTION TO TEMP.        4.336E-07   AT NODE          8   DOF 11
   INSTANCE: PLATE-1                                                                         
          THE HEAT FLUX EQUILIBRIUM EQUATIONS HAVE CONVERGED

 ITERATION SUMMARY FOR THE INCREMENT:   2 TOTAL ITERATIONS, OF WHICH
   0 ARE SEVERE DISCONTINUITY ITERATIONS AND  2 ARE EQUILIBRIUM ITERATIONS.

 TIME INCREMENT COMPLETED  1.000E+04,  FRACTION OF STEP COMPLETED  8.000E-03
 STEP TIME COMPLETED       8.000E+04,  TOTAL TIME COMPLETED        8.000E+04


  INCREMENT     9 STARTS. ATTEMPT NUMBER  1, TIME INCREMENT  1.000E+04
 
	UNSYMMETRIC NEW DIRECT SPARSE SOLVER RUNNING ON
 	1 HOST x 1 MPI RANK PER HOST x 2 THREADS PER RANK
        NUMBER OF EQUATIONS:  65612
        NUMBER OF RHS:        1
        NUMBER OF FLOPS:      9.693e+09
        SOLVER ELAPSED TIME:  211ms

               CONVERGENCE CHECKS FOR EQUILIBRIUM ITERATION     1


 AVERAGE FORCE                      2.874E-02   TIME AVG. FORCE       1.576E-02
 LARGEST SCALED RESIDUAL FORCE      1.975E-11   AT NODE       6707   DOF  3
   INSTANCE: PLATE-1                                                                         
  CORRESPONDING RESIDUAL FORCE      1.975E-11
 LARGEST INCREMENT OF DISP.         8.556E-05   AT NODE       6707   DOF  3
   INSTANCE: PLATE-1                                                                         
 LARGEST CORRECTION TO DISP.        1.147E-05   AT NODE       6707   DOF  3
   INSTANCE: PLATE-1                                                                         
          THE FORCE     EQUILIBRIUM RESPONSE WAS LINEAR IN THIS INCREMENT

 AVERAGE HEAT FLUX                  3.200E-05   TIME AVG. HEAT FLUX   1.796E-05
 LARGEST RESIDUAL HEAT FLUX         2.994E-15   AT NODE       5035   DOF 11
   INSTANCE: PLATE-1                                                                         
 LARGEST INCREMENT OF TEMP.         1.206E-02   AT NODE          8   DOF 11
   INSTANCE: PLATE-1                                                                         
 LARGEST CORRECTION TO TEMP.        1.262E-04   AT NODE          8   DOF 11
   INSTANCE: PLATE-1                                                                         
          THE HEAT FLUX EQUILIBRIUM RESPONSE WAS LINEAR IN THIS INCREMENT

 ITERATION SUMMARY FOR THE INCREMENT:   1 TOTAL ITERATIONS, OF WHICH
   0 ARE SEVERE DISCONTINUITY ITERATIONS AND  1 ARE EQUILIBRIUM ITERATIONS.

 TIME INCREMENT COMPLETED  1.000E+04,  FRACTION OF STEP COMPLETED  9.000E-03
 STEP TIME COMPLETED       9.000E+04,  TOTAL TIME COMPLETED        9.000E+04


  INCREMENT    10 STARTS. ATTEMPT NUMBER  1, TIME INCREMENT  1.000E+04
 
	UNSYMMETRIC NEW DIRECT SPARSE SOLVER RUNNING ON
 	1 HOST x 1 MPI RANK PER HOST x 2 THREADS PER RANK
        NUMBER OF EQUATIONS:  65612
        NUMBER OF RHS:        1
        NUMBER OF FLOPS:      9.693e+09
        SOLVER ELAPSED TIME:  15ms

               CONVERGENCE CHECKS FOR EQUILIBRIUM ITERATION     1


 AVERAGE FORCE                      3.193E-02   TIME AVG. FORCE       1.737E-02
 LARGEST SCALED RESIDUAL FORCE      5.275E-10   AT NODE      11094   DOF  2
   INSTANCE: PLATE-1                                                                         
  CORRESPONDING RESIDUAL FORCE      5.275E-10
 LARGEST INCREMENT OF DISP.         9.704E-05   AT NODE       6707   DOF  3
   INSTANCE: PLATE-1                                                                         
 LARGEST CORRECTION TO DISP.        1.148E-05   AT NODE       6707   DOF  3
   INSTANCE: PLATE-1                                                                         
 ESTIMATE OF DISP.    CORRECTION    1.497E-09
 FORCE     EQUILIB. ACCEPTED BASED ON SMALL RESIDUAL AND ESTIMATED CORRECTION

 AVERAGE HEAT FLUX                  3.602E-05   TIME AVG. HEAT FLUX   1.997E-05
 LARGEST RESIDUAL HEAT FLUX         1.147E-06   AT NODE          8   DOF 11
   INSTANCE: PLATE-1                                                                         
 LARGEST INCREMENT OF TEMP.         1.219E-02   AT NODE          8   DOF 11
   INSTANCE: PLATE-1                                                                         
 LARGEST CORRECTION TO TEMP.        1.265E-04   AT NODE          8   DOF 11
   INSTANCE: PLATE-1                                                                         
          HEAT FLUX EQUILIBRIUM NOT ACHIEVED WITHIN TOLERANCE.
 
	UNSYMMETRIC NEW DIRECT SPARSE SOLVER RUNNING ON
 	1 HOST x 1 MPI RANK PER HOST x 2 THREADS PER RANK
        NUMBER OF EQUATIONS:  65612
        NUMBER OF RHS:        1
        NUMBER OF FLOPS:      9.693e+09
        SOLVER ELAPSED TIME:  187ms

               CONVERGENCE CHECKS FOR EQUILIBRIUM ITERATION     2


 AVERAGE FORCE                      3.193E-02   TIME AVG. FORCE       1.737E-02
 LARGEST SCALED RESIDUAL FORCE      5.818E-14   AT NODE       6707   DOF  3
   INSTANCE: PLATE-1                                                                         
  CORRESPONDING RESIDUAL FORCE      5.818E-14
 LARGEST INCREMENT OF DISP.         9.705E-05   AT NODE       6707   DOF  3
   INSTANCE: PLATE-1                                                                         
 LARGEST CORRECTION TO DISP.        5.878E-09   AT NODE       6707   DOF  3
   INSTANCE: PLATE-1                                                                         
          THE FORCE     EQUILIBRIUM EQUATIONS HAVE CONVERGED

 AVERAGE HEAT FLUX                  3.603E-05   TIME AVG. HEAT FLUX   1.997E-05
 LARGEST RESIDUAL HEAT FLUX        -2.697E-15   AT NODE       3383   DOF 11
   INSTANCE: PLATE-1                                                                         
 LARGEST INCREMENT OF TEMP.         1.219E-02   AT NODE          8   DOF 11
   INSTANCE: PLATE-1                                                                         
 LARGEST CORRECTION TO TEMP.        4.378E-07   AT NODE          8   DOF 11
   INSTANCE: PLATE-1                                                                         
          THE HEAT FLUX EQUILIBRIUM EQUATIONS HAVE CONVERGED

 ITERATION SUMMARY FOR THE INCREMENT:   2 TOTAL ITERATIONS, OF WHICH
   0 ARE SEVERE DISCONTINUITY ITERATIONS AND  2 ARE EQUILIBRIUM ITERATIONS.

 TIME INCREMENT COMPLETED  1.000E+04,  FRACTION OF STEP COMPLETED  1.000E-02
 STEP TIME COMPLETED       1.000E+05,  TOTAL TIME COMPLETED        1.000E+05


  INCREMENT    11 STARTS. ATTEMPT NUMBER  1, TIME INCREMENT  1.000E+04
 
	UNSYMMETRIC NEW DIRECT SPARSE SOLVER RUNNING ON
 	1 HOST x 1 MPI RANK PER HOST x 2 THREADS PER RANK
        NUMBER OF EQUATIONS:  65612
        NUMBER OF RHS:        1
        NUMBER OF FLOPS:      9.693e+09
        SOLVER ELAPSED TIME:  369ms

               CONVERGENCE CHECKS FOR EQUILIBRIUM ITERATION     1


 AVERAGE FORCE                      3.513E-02   TIME AVG. FORCE       1.899E-02
 LARGEST SCALED RESIDUAL FORCE      3.032E-11   AT NODE       6707   DOF  3
   INSTANCE: PLATE-1                                                                         
  CORRESPONDING RESIDUAL FORCE      3.032E-11
 LARGEST INCREMENT OF DISP.         1.086E-04   AT NODE       6707   DOF  3
   INSTANCE: PLATE-1                                                                         
 LARGEST CORRECTION TO DISP.        1.150E-05   AT NODE       6707   DOF  3
   INSTANCE: PLATE-1                                                                         
          THE FORCE     EQUILIBRIUM RESPONSE WAS LINEAR IN THIS INCREMENT

 AVERAGE HEAT FLUX                  4.007E-05   TIME AVG. HEAT FLUX   2.198E-05
 LARGEST RESIDUAL HEAT FLUX         2.828E-15   AT NODE       2258   DOF 11
   INSTANCE: PLATE-1                                                                         
 LARGEST INCREMENT OF TEMP.         1.232E-02   AT NODE          8   DOF 11
   INSTANCE: PLATE-1                                                                         
 LARGEST CORRECTION TO TEMP.        1.278E-04   AT NODE          8   DOF 11
   INSTANCE: PLATE-1                                                                         
          THE HEAT FLUX EQUILIBRIUM RESPONSE WAS LINEAR IN THIS INCREMENT

 ITERATION SUMMARY FOR THE INCREMENT:   1 TOTAL ITERATIONS, OF WHICH
   0 ARE SEVERE DISCONTINUITY ITERATIONS AND  1 ARE EQUILIBRIUM ITERATIONS.

 TIME INCREMENT COMPLETED  1.000E+04,  FRACTION OF STEP COMPLETED  1.100E-02
 STEP TIME COMPLETED       1.100E+05,  TOTAL TIME COMPLETED        1.100E+05


  INCREMENT    12 STARTS. ATTEMPT NUMBER  1, TIME INCREMENT  1.000E+04
 
	UNSYMMETRIC NEW DIRECT SPARSE SOLVER RUNNING ON
 	1 HOST x 1 MPI RANK PER HOST x 2 THREADS PER RANK
        NUMBER OF EQUATIONS:  65612
        NUMBER OF RHS:        1
        NUMBER OF FLOPS:      9.693e+09
        SOLVER ELAPSED TIME:  22ms

               CONVERGENCE CHECKS FOR EQUILIBRIUM ITERATION     1


 AVERAGE FORCE                      3.832E-02   TIME AVG. FORCE       2.060E-02
 LARGEST SCALED RESIDUAL FORCE      8.426E-10   AT NODE      11094   DOF  2
   INSTANCE: PLATE-1                                                                         
  CORRESPONDING RESIDUAL FORCE      8.426E-10
 LARGEST INCREMENT OF DISP.         1.201E-04   AT NODE       6707   DOF  3
   INSTANCE: PLATE-1                                                                         
 LARGEST CORRECTION TO DISP.        1.152E-05   AT NODE       6707   DOF  3
   INSTANCE: PLATE-1                                                                         
 ESTIMATE OF DISP.    CORRECTION    1.903E-09
 FORCE     EQUILIB. ACCEPTED BASED ON SMALL RESIDUAL AND ESTIMATED CORRECTION

 AVERAGE HEAT FLUX                  4.411E-05   TIME AVG. HEAT FLUX   2.399E-05
 LARGEST RESIDUAL HEAT FLUX         1.156E-06   AT NODE          8   DOF 11
   INSTANCE: PLATE-1                                                                         
 LARGEST INCREMENT OF TEMP.         1.245E-02   AT NODE          8   DOF 11
   INSTANCE: PLATE-1                                                                         
 LARGEST CORRECTION TO TEMP.        1.281E-04   AT NODE          8   DOF 11
   INSTANCE: PLATE-1                                                                         
          HEAT FLUX EQUILIBRIUM NOT ACHIEVED WITHIN TOLERANCE.
 
	UNSYMMETRIC NEW DIRECT SPARSE SOLVER RUNNING ON
 	1 HOST x 1 MPI RANK PER HOST x 2 THREADS PER RANK
        NUMBER OF EQUATIONS:  65612
        NUMBER OF RHS:        1
        NUMBER OF FLOPS:      9.693e+09
        SOLVER ELAPSED TIME:  365ms

               CONVERGENCE CHECKS FOR EQUILIBRIUM ITERATION     2


 AVERAGE FORCE                      3.832E-02   TIME AVG. FORCE       2.060E-02
 LARGEST SCALED RESIDUAL FORCE      8.509E-14   AT NODE       6707   DOF  3
   INSTANCE: PLATE-1                                                                         
  CORRESPONDING RESIDUAL FORCE      8.509E-14
 LARGEST INCREMENT OF DISP.         1.201E-04   AT NODE       6707   DOF  3
   INSTANCE: PLATE-1                                                                         
 LARGEST CORRECTION TO DISP.        6.035E-09   AT NODE       6707   DOF  3
   INSTANCE: PLATE-1                                                                         
          THE FORCE     EQUILIBRIUM EQUATIONS HAVE CONVERGED

 AVERAGE HEAT FLUX                  4.411E-05   TIME AVG. HEAT FLUX   2.399E-05
 LARGEST RESIDUAL HEAT FLUX         2.719E-15   AT NODE       2697   DOF 11
   INSTANCE: PLATE-1                                                                         
 LARGEST INCREMENT OF TEMP.         1.245E-02   AT NODE          8   DOF 11
   INSTANCE: PLATE-1                                                                         
 LARGEST CORRECTION TO TEMP.        4.418E-07   AT NODE          8   DOF 11
   INSTANCE: PLATE-1                                                                         
          THE HEAT FLUX EQUILIBRIUM EQUATIONS HAVE CONVERGED

 ITERATION SUMMARY FOR THE INCREMENT:   2 TOTAL ITERATIONS, OF WHICH
   0 ARE SEVERE DISCONTINUITY ITERATIONS AND  2 ARE EQUILIBRIUM ITERATIONS.

 TIME INCREMENT COMPLETED  1.000E+04,  FRACTION OF STEP COMPLETED  1.200E-02
 STEP TIME COMPLETED       1.200E+05,  TOTAL TIME COMPLETED        1.200E+05


  INCREMENT    13 STARTS. ATTEMPT NUMBER  1, TIME INCREMENT  1.000E+04
 
	UNSYMMETRIC NEW DIRECT SPARSE SOLVER RUNNING ON
 	1 HOST x 1 MPI RANK PER HOST x 2 THREADS PER RANK
        NUMBER OF EQUATIONS:  65612
        NUMBER OF RHS:        1
        NUMBER OF FLOPS:      9.693e+09
        SOLVER ELAPSED TIME:  364ms

               CONVERGENCE CHECKS FOR EQUILIBRIUM ITERATION     1


 AVERAGE FORCE                      4.151E-02   TIME AVG. FORCE       2.221E-02
 LARGEST SCALED RESIDUAL FORCE      4.287E-11   AT NODE       6707   DOF  3
   INSTANCE: PLATE-1                                                                         
  CORRESPONDING RESIDUAL FORCE      4.287E-11
 LARGEST INCREMENT OF DISP.         1.316E-04   AT NODE       6707   DOF  3
   INSTANCE: PLATE-1                                                                         
 LARGEST CORRECTION TO DISP.        1.154E-05   AT NODE       6707   DOF  3
   INSTANCE: PLATE-1                                                                         
          THE FORCE     EQUILIBRIUM RESPONSE WAS LINEAR IN THIS INCREMENT

 AVERAGE HEAT FLUX                  4.816E-05   TIME AVG. HEAT FLUX   2.600E-05
 LARGEST RESIDUAL HEAT FLUX        -3.140E-15   AT NODE       3036   DOF 11
   INSTANCE: PLATE-1                                                                         
 LARGEST INCREMENT OF TEMP.         1.258E-02   AT NODE          8   DOF 11
   INSTANCE: PLATE-1                                                                         
 LARGEST CORRECTION TO TEMP.        1.293E-04   AT NODE          8   DOF 11
   INSTANCE: PLATE-1                                                                         
          THE HEAT FLUX EQUILIBRIUM RESPONSE WAS LINEAR IN THIS INCREMENT

 ITERATION SUMMARY FOR THE INCREMENT:   1 TOTAL ITERATIONS, OF WHICH
   0 ARE SEVERE DISCONTINUITY ITERATIONS AND  1 ARE EQUILIBRIUM ITERATIONS.

 TIME INCREMENT COMPLETED  1.000E+04,  FRACTION OF STEP COMPLETED  1.300E-02
 STEP TIME COMPLETED       1.300E+05,  TOTAL TIME COMPLETED        1.300E+05


  INCREMENT    14 STARTS. ATTEMPT NUMBER  1, TIME INCREMENT  1.000E+04
 
	UNSYMMETRIC NEW DIRECT SPARSE SOLVER RUNNING ON
 	1 HOST x 1 MPI RANK PER HOST x 2 THREADS PER RANK
        NUMBER OF EQUATIONS:  65612
        NUMBER OF RHS:        1
        NUMBER OF FLOPS:      9.693e+09
        SOLVER ELAPSED TIME:  21ms

               CONVERGENCE CHECKS FOR EQUILIBRIUM ITERATION     1


 AVERAGE FORCE                      4.469E-02   TIME AVG. FORCE       2.381E-02
 LARGEST SCALED RESIDUAL FORCE      1.231E-09   AT NODE      11094   DOF  2
   INSTANCE: PLATE-1                                                                         
  CORRESPONDING RESIDUAL FORCE      1.231E-09
 LARGEST INCREMENT OF DISP.         1.432E-04   AT NODE       6707   DOF  3
   INSTANCE: PLATE-1                                                                         
 LARGEST CORRECTION TO DISP.        1.156E-05   AT NODE       6707   DOF  3
   INSTANCE: PLATE-1                                                                         
 ESTIMATE OF DISP.    CORRECTION    2.311E-09
 FORCE     EQUILIB. ACCEPTED BASED ON SMALL RESIDUAL AND ESTIMATED CORRECTION

 AVERAGE HEAT FLUX                  5.222E-05   TIME AVG. HEAT FLUX   2.802E-05
 LARGEST RESIDUAL HEAT FLUX         1.163E-06   AT NODE          8   DOF 11
   INSTANCE: PLATE-1                                                                         
 LARGEST INCREMENT OF TEMP.         1.271E-02   AT NODE          8   DOF 11
   INSTANCE: PLATE-1                                                                         
 LARGEST CORRECTION TO TEMP.        1.297E-04   AT NODE          8   DOF 11
   INSTANCE: PLATE-1                                                                         
          HEAT FLUX EQUILIBRIUM NOT ACHIEVED WITHIN TOLERANCE.
 
	UNSYMMETRIC NEW DIRECT SPARSE SOLVER RUNNING ON
 	1 HOST x 1 MPI RANK PER HOST x 2 THREADS PER RANK
        NUMBER OF EQUATIONS:  65612
        NUMBER OF RHS:        1
        NUMBER OF FLOPS:      9.693e+09
        SOLVER ELAPSED TIME:  356ms

               CONVERGENCE CHECKS FOR EQUILIBRIUM ITERATION     2


 AVERAGE FORCE                      4.469E-02   TIME AVG. FORCE       2.381E-02
 LARGEST SCALED RESIDUAL FORCE      1.163E-13   AT NODE       6707   DOF  3
   INSTANCE: PLATE-1                                                                         
  CORRESPONDING RESIDUAL FORCE      1.163E-13
 LARGEST INCREMENT OF DISP.         1.432E-04   AT NODE       6707   DOF  3
   INSTANCE: PLATE-1                                                                         
 LARGEST CORRECTION TO DISP.        6.251E-09   AT NODE       6707   DOF  3
   INSTANCE: PLATE-1                                                                         
          THE FORCE     EQUILIBRIUM EQUATIONS HAVE CONVERGED

 AVERAGE HEAT FLUX                  5.222E-05   TIME AVG. HEAT FLUX   2.802E-05
 LARGEST RESIDUAL HEAT FLUX         2.728E-15   AT NODE       2512   DOF 11
   INSTANCE: PLATE-1                                                                         
 LARGEST INCREMENT OF TEMP.         1.271E-02   AT NODE          8   DOF 11
   INSTANCE: PLATE-1                                                                         
 LARGEST CORRECTION TO TEMP.        4.456E-07   AT NODE          8   DOF 11
   INSTANCE: PLATE-1                                                                         
          THE HEAT FLUX EQUILIBRIUM EQUATIONS HAVE CONVERGED

 ITERATION SUMMARY FOR THE INCREMENT:   2 TOTAL ITERATIONS, OF WHICH
   0 ARE SEVERE DISCONTINUITY ITERATIONS AND  2 ARE EQUILIBRIUM ITERATIONS.

 TIME INCREMENT COMPLETED  1.000E+04,  FRACTION OF STEP COMPLETED  1.400E-02
 STEP TIME COMPLETED       1.400E+05,  TOTAL TIME COMPLETED        1.400E+05


  INCREMENT    15 STARTS. ATTEMPT NUMBER  1, TIME INCREMENT  1.000E+04
 
	UNSYMMETRIC NEW DIRECT SPARSE SOLVER RUNNING ON
 	1 HOST x 1 MPI RANK PER HOST x 2 THREADS PER RANK
        NUMBER OF EQUATIONS:  65612
        NUMBER OF RHS:        1
        NUMBER OF FLOPS:      9.693e+09
        SOLVER ELAPSED TIME:  370ms

               CONVERGENCE CHECKS FOR EQUILIBRIUM ITERATION     1


 AVERAGE FORCE                      4.788E-02   TIME AVG. FORCE       2.542E-02
 LARGEST SCALED RESIDUAL FORCE      5.726E-11   AT NODE       6707   DOF  3
   INSTANCE: PLATE-1                                                                         
  CORRESPONDING RESIDUAL FORCE      5.726E-11
 LARGEST INCREMENT OF DISP.         1.548E-04   AT NODE       6707   DOF  3
   INSTANCE: PLATE-1                                                                         
 LARGEST CORRECTION TO DISP.        1.158E-05   AT NODE       6707   DOF  3
   INSTANCE: PLATE-1                                                                         
          THE FORCE     EQUILIBRIUM RESPONSE WAS LINEAR IN THIS INCREMENT

 AVERAGE HEAT FLUX                  5.628E-05   TIME AVG. HEAT FLUX   3.004E-05
 LARGEST RESIDUAL HEAT FLUX        -3.151E-15   AT NODE       4517   DOF 11
   INSTANCE: PLATE-1                                                                         
 LARGEST INCREMENT OF TEMP.         1.284E-02   AT NODE          8   DOF 11
   INSTANCE: PLATE-1                                                                         
 LARGEST CORRECTION TO TEMP.        1.309E-04   AT NODE          8   DOF 11
   INSTANCE: PLATE-1                                                                         
          THE HEAT FLUX EQUILIBRIUM RESPONSE WAS LINEAR IN THIS INCREMENT

 ITERATION SUMMARY FOR THE INCREMENT:   1 TOTAL ITERATIONS, OF WHICH
   0 ARE SEVERE DISCONTINUITY ITERATIONS AND  1 ARE EQUILIBRIUM ITERATIONS.

 TIME INCREMENT COMPLETED  1.000E+04,  FRACTION OF STEP COMPLETED  1.500E-02
 STEP TIME COMPLETED       1.500E+05,  TOTAL TIME COMPLETED        1.500E+05


  INCREMENT    16 STARTS. ATTEMPT NUMBER  1, TIME INCREMENT  1.000E+04
 
	UNSYMMETRIC NEW DIRECT SPARSE SOLVER RUNNING ON
 	1 HOST x 1 MPI RANK PER HOST x 2 THREADS PER RANK
        NUMBER OF EQUATIONS:  65612
        NUMBER OF RHS:        1
        NUMBER OF FLOPS:      9.693e+09
        SOLVER ELAPSED TIME:  24ms

               CONVERGENCE CHECKS FOR EQUILIBRIUM ITERATION     1


 AVERAGE FORCE                      5.107E-02   TIME AVG. FORCE       2.702E-02
 LARGEST SCALED RESIDUAL FORCE      1.694E-09   AT NODE      11094   DOF  2
   INSTANCE: PLATE-1                                                                         
  CORRESPONDING RESIDUAL FORCE      1.694E-09
 LARGEST INCREMENT OF DISP.         1.664E-04   AT NODE       6707   DOF  3
   INSTANCE: PLATE-1                                                                         
 LARGEST CORRECTION TO DISP.        1.160E-05   AT NODE       6707   DOF  3
   INSTANCE: PLATE-1                                                                         
 ESTIMATE OF DISP.    CORRECTION    2.723E-09
 FORCE     EQUILIB. ACCEPTED BASED ON SMALL RESIDUAL AND ESTIMATED CORRECTION

 AVERAGE HEAT FLUX                  6.035E-05   TIME AVG. HEAT FLUX   3.206E-05
 LARGEST RESIDUAL HEAT FLUX         1.170E-06   AT NODE          8   DOF 11
   INSTANCE: PLATE-1                                                                         
 LARGEST INCREMENT OF TEMP.         1.297E-02   AT NODE          8   DOF 11
   INSTANCE: PLATE-1                                                                         
 LARGEST CORRECTION TO TEMP.        1.312E-04   AT NODE          8   DOF 11
   INSTANCE: PLATE-1                                                                         
          HEAT FLUX EQUILIBRIUM NOT ACHIEVED WITHIN TOLERANCE.
 
	UNSYMMETRIC NEW DIRECT SPARSE SOLVER RUNNING ON
 	1 HOST x 1 MPI RANK PER HOST x 2 THREADS PER RANK
        NUMBER OF EQUATIONS:  65612
        NUMBER OF RHS:        1
        NUMBER OF FLOPS:      9.693e+09
        SOLVER ELAPSED TIME:  357ms

               CONVERGENCE CHECKS FOR EQUILIBRIUM ITERATION     2


 AVERAGE FORCE                      5.107E-02   TIME AVG. FORCE       2.702E-02
 LARGEST SCALED RESIDUAL FORCE      1.519E-13   AT NODE          8   DOF  3
   INSTANCE: PLATE-1                                                                         
  CORRESPONDING RESIDUAL FORCE      1.519E-13
 LARGEST INCREMENT OF DISP.         1.664E-04   AT NODE       6707   DOF  3
   INSTANCE: PLATE-1                                                                         
 LARGEST CORRECTION TO DISP.        6.522E-09   AT NODE       6707   DOF  3
   INSTANCE: PLATE-1                                                                         
          THE FORCE     EQUILIBRIUM EQUATIONS HAVE CONVERGED

 AVERAGE HEAT FLUX                  6.035E-05   TIME AVG. HEAT FLUX   3.206E-05
 LARGEST RESIDUAL HEAT FLUX         3.329E-15   AT NODE       2945   DOF 11
   INSTANCE: PLATE-1                                                                         
 LARGEST INCREMENT OF TEMP.         1.297E-02   AT NODE          8   DOF 11
   INSTANCE: PLATE-1                                                                         
 LARGEST CORRECTION TO TEMP.        4.491E-07   AT NODE          8   DOF 11
   INSTANCE: PLATE-1                                                                         
          THE HEAT FLUX EQUILIBRIUM EQUATIONS HAVE CONVERGED

 ITERATION SUMMARY FOR THE INCREMENT:   2 TOTAL ITERATIONS, OF WHICH
   0 ARE SEVERE DISCONTINUITY ITERATIONS AND  2 ARE EQUILIBRIUM ITERATIONS.

 TIME INCREMENT COMPLETED  1.000E+04,  FRACTION OF STEP COMPLETED  1.600E-02
 STEP TIME COMPLETED       1.600E+05,  TOTAL TIME COMPLETED        1.600E+05


  INCREMENT    17 STARTS. ATTEMPT NUMBER  1, TIME INCREMENT  1.000E+04
 
	UNSYMMETRIC NEW DIRECT SPARSE SOLVER RUNNING ON
 	1 HOST x 1 MPI RANK PER HOST x 2 THREADS PER RANK
        NUMBER OF EQUATIONS:  65612
        NUMBER OF RHS:        1
        NUMBER OF FLOPS:      9.693e+09
        SOLVER ELAPSED TIME:  370ms

               CONVERGENCE CHECKS FOR EQUILIBRIUM ITERATION     1


 AVERAGE FORCE                      5.425E-02   TIME AVG. FORCE       2.862E-02
 LARGEST SCALED RESIDUAL FORCE      7.336E-11   AT NODE       6707   DOF  3
   INSTANCE: PLATE-1                                                                         
  CORRESPONDING RESIDUAL FORCE      7.336E-11
 LARGEST INCREMENT OF DISP.         1.780E-04   AT NODE       6707   DOF  3
   INSTANCE: PLATE-1                                                                         
 LARGEST CORRECTION TO DISP.        1.162E-05   AT NODE       6707   DOF  3
   INSTANCE: PLATE-1                                                                         
          THE FORCE     EQUILIBRIUM RESPONSE WAS LINEAR IN THIS INCREMENT

 AVERAGE HEAT FLUX                  6.442E-05   TIME AVG. HEAT FLUX   3.408E-05
 LARGEST RESIDUAL HEAT FLUX        -3.040E-15   AT NODE       5212   DOF 11
   INSTANCE: PLATE-1                                                                         
 LARGEST INCREMENT OF TEMP.         1.310E-02   AT NODE          8   DOF 11
   INSTANCE: PLATE-1                                                                         
 LARGEST CORRECTION TO TEMP.        1.324E-04   AT NODE          8   DOF 11
   INSTANCE: PLATE-1                                                                         
          THE HEAT FLUX EQUILIBRIUM RESPONSE WAS LINEAR IN THIS INCREMENT

 ITERATION SUMMARY FOR THE INCREMENT:   1 TOTAL ITERATIONS, OF WHICH
   0 ARE SEVERE DISCONTINUITY ITERATIONS AND  1 ARE EQUILIBRIUM ITERATIONS.

 TIME INCREMENT COMPLETED  1.000E+04,  FRACTION OF STEP COMPLETED  1.700E-02
 STEP TIME COMPLETED       1.700E+05,  TOTAL TIME COMPLETED        1.700E+05


  INCREMENT    18 STARTS. ATTEMPT NUMBER  1, TIME INCREMENT  1.000E+04
 
	UNSYMMETRIC NEW DIRECT SPARSE SOLVER RUNNING ON
 	1 HOST x 1 MPI RANK PER HOST x 2 THREADS PER RANK
        NUMBER OF EQUATIONS:  65612
        NUMBER OF RHS:        1
        NUMBER OF FLOPS:      9.693e+09
        SOLVER ELAPSED TIME:  23ms

               CONVERGENCE CHECKS FOR EQUILIBRIUM ITERATION     1


 AVERAGE FORCE                      5.744E-02   TIME AVG. FORCE       3.022E-02
 LARGEST SCALED RESIDUAL FORCE      2.231E-09   AT NODE      11094   DOF  2
   INSTANCE: PLATE-1                                                                         
  CORRESPONDING RESIDUAL FORCE      2.231E-09
 LARGEST INCREMENT OF DISP.         1.896E-04   AT NODE       6707   DOF  3
   INSTANCE: PLATE-1                                                                         
 LARGEST CORRECTION TO DISP.        1.164E-05   AT NODE       6707   DOF  3
   INSTANCE: PLATE-1                                                                         
 ESTIMATE OF DISP.    CORRECTION    3.138E-09
 FORCE     EQUILIB. ACCEPTED BASED ON SMALL RESIDUAL AND ESTIMATED CORRECTION

 AVERAGE HEAT FLUX                  6.851E-05   TIME AVG. HEAT FLUX   3.611E-05
 LARGEST RESIDUAL HEAT FLUX         1.177E-06   AT NODE          8   DOF 11
   INSTANCE: PLATE-1                                                                         
 LARGEST INCREMENT OF TEMP.         1.323E-02   AT NODE          8   DOF 11
   INSTANCE: PLATE-1                                                                         
 LARGEST CORRECTION TO TEMP.        1.326E-04   AT NODE          8   DOF 11
   INSTANCE: PLATE-1                                                                         
          HEAT FLUX EQUILIBRIUM NOT ACHIEVED WITHIN TOLERANCE.
 
	UNSYMMETRIC NEW DIRECT SPARSE SOLVER RUNNING ON
 	1 HOST x 1 MPI RANK PER HOST x 2 THREADS PER RANK
        NUMBER OF EQUATIONS:  65612
        NUMBER OF RHS:        1
        NUMBER OF FLOPS:      9.693e+09
        SOLVER ELAPSED TIME:  361ms

               CONVERGENCE CHECKS FOR EQUILIBRIUM ITERATION     2


 AVERAGE FORCE                      5.744E-02   TIME AVG. FORCE       3.022E-02
 LARGEST SCALED RESIDUAL FORCE      1.925E-13   AT NODE          8   DOF  3
   INSTANCE: PLATE-1                                                                         
  CORRESPONDING RESIDUAL FORCE      1.925E-13
 LARGEST INCREMENT OF DISP.         1.897E-04   AT NODE       6707   DOF  3
   INSTANCE: PLATE-1                                                                         
 LARGEST CORRECTION TO DISP.        6.843E-09   AT NODE       6707   DOF  3
   INSTANCE: PLATE-1                                                                         
          THE FORCE     EQUILIBRIUM EQUATIONS HAVE CONVERGED

 AVERAGE HEAT FLUX                  6.851E-05   TIME AVG. HEAT FLUX   3.611E-05
 LARGEST RESIDUAL HEAT FLUX         3.009E-15   AT NODE       4430   DOF 11
   INSTANCE: PLATE-1                                                                         
 LARGEST INCREMENT OF TEMP.         1.323E-02   AT NODE          8   DOF 11
   INSTANCE: PLATE-1                                                                         
 LARGEST CORRECTION TO TEMP.        4.524E-07   AT NODE          8   DOF 11
   INSTANCE: PLATE-1                                                                         
          THE HEAT FLUX EQUILIBRIUM EQUATIONS HAVE CONVERGED

 ITERATION SUMMARY FOR THE INCREMENT:   2 TOTAL ITERATIONS, OF WHICH
   0 ARE SEVERE DISCONTINUITY ITERATIONS AND  2 ARE EQUILIBRIUM ITERATIONS.

 TIME INCREMENT COMPLETED  1.000E+04,  FRACTION OF STEP COMPLETED  1.800E-02
 STEP TIME COMPLETED       1.800E+05,  TOTAL TIME COMPLETED        1.800E+05


  INCREMENT    19 STARTS. ATTEMPT NUMBER  1, TIME INCREMENT  1.000E+04
 
	UNSYMMETRIC NEW DIRECT SPARSE SOLVER RUNNING ON
 	1 HOST x 1 MPI RANK PER HOST x 2 THREADS PER RANK
        NUMBER OF EQUATIONS:  65612
        NUMBER OF RHS:        1
        NUMBER OF FLOPS:      9.693e+09
        SOLVER ELAPSED TIME:  372ms

               CONVERGENCE CHECKS FOR EQUILIBRIUM ITERATION     1


 AVERAGE FORCE                      6.062E-02   TIME AVG. FORCE       3.182E-02
 LARGEST SCALED RESIDUAL FORCE      9.103E-11   AT NODE       6707   DOF  3
   INSTANCE: PLATE-1                                                                         
  CORRESPONDING RESIDUAL FORCE      9.103E-11
 LARGEST INCREMENT OF DISP.         2.013E-04   AT NODE       6707   DOF  3
   INSTANCE: PLATE-1                                                                         
 LARGEST CORRECTION TO DISP.        1.166E-05   AT NODE       6707   DOF  3
   INSTANCE: PLATE-1                                                                         
          THE FORCE     EQUILIBRIUM RESPONSE WAS LINEAR IN THIS INCREMENT

 AVERAGE HEAT FLUX                  7.260E-05   TIME AVG. HEAT FLUX   3.813E-05
 LARGEST RESIDUAL HEAT FLUX         3.160E-15   AT NODE       4474   DOF 11
   INSTANCE: PLATE-1                                                                         
 LARGEST INCREMENT OF TEMP.         1.337E-02   AT NODE          8   DOF 11
   INSTANCE: PLATE-1                                                                         
 LARGEST CORRECTION TO TEMP.        1.338E-04   AT NODE          8   DOF 11
   INSTANCE: PLATE-1                                                                         
          THE HEAT FLUX EQUILIBRIUM RESPONSE WAS LINEAR IN THIS INCREMENT

 ITERATION SUMMARY FOR THE INCREMENT:   1 TOTAL ITERATIONS, OF WHICH
   0 ARE SEVERE DISCONTINUITY ITERATIONS AND  1 ARE EQUILIBRIUM ITERATIONS.

 TIME INCREMENT COMPLETED  1.000E+04,  FRACTION OF STEP COMPLETED  1.900E-02
 STEP TIME COMPLETED       1.900E+05,  TOTAL TIME COMPLETED        1.900E+05


  INCREMENT    20 STARTS. ATTEMPT NUMBER  1, TIME INCREMENT  1.000E+04
 
	UNSYMMETRIC NEW DIRECT SPARSE SOLVER RUNNING ON
 	1 HOST x 1 MPI RANK PER HOST x 2 THREADS PER RANK
        NUMBER OF EQUATIONS:  65612
        NUMBER OF RHS:        1
        NUMBER OF FLOPS:      9.693e+09
        SOLVER ELAPSED TIME:  23ms

               CONVERGENCE CHECKS FOR EQUILIBRIUM ITERATION     1


 AVERAGE FORCE                      6.380E-02   TIME AVG. FORCE       3.342E-02
 LARGEST SCALED RESIDUAL FORCE      2.842E-09   AT NODE      11094   DOF  2
   INSTANCE: PLATE-1                                                                         
  CORRESPONDING RESIDUAL FORCE      2.842E-09
 LARGEST INCREMENT OF DISP.         2.130E-04   AT NODE       6707   DOF  3
   INSTANCE: PLATE-1                                                                         
 LARGEST CORRECTION TO DISP.        1.169E-05   AT NODE       6707   DOF  3
   INSTANCE: PLATE-1                                                                         
 ESTIMATE OF DISP.    CORRECTION    3.556E-09
 FORCE     EQUILIB. ACCEPTED BASED ON SMALL RESIDUAL AND ESTIMATED CORRECTION

 AVERAGE HEAT FLUX                  7.668E-05   TIME AVG. HEAT FLUX   4.016E-05
 LARGEST RESIDUAL HEAT FLUX         1.183E-06   AT NODE          8   DOF 11
   INSTANCE: PLATE-1                                                                         
 LARGEST INCREMENT OF TEMP.         1.350E-02   AT NODE          8   DOF 11
   INSTANCE: PLATE-1                                                                         
 LARGEST CORRECTION TO TEMP.        1.341E-04   AT NODE          8   DOF 11
   INSTANCE: PLATE-1                                                                         
          HEAT FLUX EQUILIBRIUM NOT ACHIEVED WITHIN TOLERANCE.
 
	UNSYMMETRIC NEW DIRECT SPARSE SOLVER RUNNING ON
 	1 HOST x 1 MPI RANK PER HOST x 2 THREADS PER RANK
        NUMBER OF EQUATIONS:  65612
        NUMBER OF RHS:        1
        NUMBER OF FLOPS:      9.693e+09
        SOLVER ELAPSED TIME:  363ms

               CONVERGENCE CHECKS FOR EQUILIBRIUM ITERATION     2


 AVERAGE FORCE                      6.380E-02   TIME AVG. FORCE       3.342E-02
 LARGEST SCALED RESIDUAL FORCE      2.371E-13   AT NODE          8   DOF  3
   INSTANCE: PLATE-1                                                                         
  CORRESPONDING RESIDUAL FORCE      2.371E-13
 LARGEST INCREMENT OF DISP.         2.130E-04   AT NODE       6707   DOF  3
   INSTANCE: PLATE-1                                                                         
 LARGEST CORRECTION TO DISP.        7.212E-09   AT NODE       6707   DOF  3
   INSTANCE: PLATE-1                                                                         
          THE FORCE     EQUILIBRIUM EQUATIONS HAVE CONVERGED

 AVERAGE HEAT FLUX                  7.668E-05   TIME AVG. HEAT FLUX   4.016E-05
 LARGEST RESIDUAL HEAT FLUX         2.518E-15   AT NODE       1831   DOF 11
   INSTANCE: PLATE-1                                                                         
 LARGEST INCREMENT OF TEMP.         1.350E-02   AT NODE          8   DOF 11
   INSTANCE: PLATE-1                                                                         
 LARGEST CORRECTION TO TEMP.        4.554E-07   AT NODE          8   DOF 11
   INSTANCE: PLATE-1                                                                         
          THE HEAT FLUX EQUILIBRIUM EQUATIONS HAVE CONVERGED

 ITERATION SUMMARY FOR THE INCREMENT:   2 TOTAL ITERATIONS, OF WHICH
   0 ARE SEVERE DISCONTINUITY ITERATIONS AND  2 ARE EQUILIBRIUM ITERATIONS.

 TIME INCREMENT COMPLETED  1.000E+04,  FRACTION OF STEP COMPLETED  2.000E-02
 STEP TIME COMPLETED       2.000E+05,  TOTAL TIME COMPLETED        2.000E+05


  INCREMENT    21 STARTS. ATTEMPT NUMBER  1, TIME INCREMENT  1.000E+04
 
	UNSYMMETRIC NEW DIRECT SPARSE SOLVER RUNNING ON
 	1 HOST x 1 MPI RANK PER HOST x 2 THREADS PER RANK
        NUMBER OF EQUATIONS:  65612
        NUMBER OF RHS:        1
        NUMBER OF FLOPS:      9.693e+09
        SOLVER ELAPSED TIME:  361ms

               CONVERGENCE CHECKS FOR EQUILIBRIUM ITERATION     1


 AVERAGE FORCE                      6.698E-02   TIME AVG. FORCE       3.502E-02
 LARGEST SCALED RESIDUAL FORCE      1.101E-10   AT NODE       6707   DOF  3
   INSTANCE: PLATE-1                                                                         
  CORRESPONDING RESIDUAL FORCE      1.101E-10
 LARGEST INCREMENT OF DISP.         2.247E-04   AT NODE       6707   DOF  3
   INSTANCE: PLATE-1                                                                         
 LARGEST CORRECTION TO DISP.        1.171E-05   AT NODE       6707   DOF  3
   INSTANCE: PLATE-1                                                                         
          THE FORCE     EQUILIBRIUM RESPONSE WAS LINEAR IN THIS INCREMENT

 AVERAGE HEAT FLUX                  8.079E-05   TIME AVG. HEAT FLUX   4.219E-05
 LARGEST RESIDUAL HEAT FLUX         2.751E-15   AT NODE        989   DOF 11
   INSTANCE: PLATE-1                                                                         
 LARGEST INCREMENT OF TEMP.         1.364E-02   AT NODE          8   DOF 11
   INSTANCE: PLATE-1                                                                         
 LARGEST CORRECTION TO TEMP.        1.352E-04   AT NODE          8   DOF 11
   INSTANCE: PLATE-1                                                                         
          THE HEAT FLUX EQUILIBRIUM RESPONSE WAS LINEAR IN THIS INCREMENT

 ITERATION SUMMARY FOR THE INCREMENT:   1 TOTAL ITERATIONS, OF WHICH
   0 ARE SEVERE DISCONTINUITY ITERATIONS AND  1 ARE EQUILIBRIUM ITERATIONS.

 TIME INCREMENT COMPLETED  1.000E+04,  FRACTION OF STEP COMPLETED  2.100E-02
 STEP TIME COMPLETED       2.100E+05,  TOTAL TIME COMPLETED        2.100E+05


  INCREMENT    22 STARTS. ATTEMPT NUMBER  1, TIME INCREMENT  1.000E+04
 
	UNSYMMETRIC NEW DIRECT SPARSE SOLVER RUNNING ON
 	1 HOST x 1 MPI RANK PER HOST x 2 THREADS PER RANK
        NUMBER OF EQUATIONS:  65612
        NUMBER OF RHS:        1
        NUMBER OF FLOPS:      9.693e+09
        SOLVER ELAPSED TIME:  24ms

               CONVERGENCE CHECKS FOR EQUILIBRIUM ITERATION     1


 AVERAGE FORCE                      7.015E-02   TIME AVG. FORCE       3.662E-02
 LARGEST SCALED RESIDUAL FORCE      3.527E-09   AT NODE      11094   DOF  2
   INSTANCE: PLATE-1                                                                         
  CORRESPONDING RESIDUAL FORCE      3.527E-09
 LARGEST INCREMENT OF DISP.         2.364E-04   AT NODE       6707   DOF  3
   INSTANCE: PLATE-1                                                                         
 LARGEST CORRECTION TO DISP.        1.173E-05   AT NODE       6707   DOF  3
   INSTANCE: PLATE-1                                                                         
 ESTIMATE OF DISP.    CORRECTION    3.978E-09
 FORCE     EQUILIB. ACCEPTED BASED ON SMALL RESIDUAL AND ESTIMATED CORRECTION

 AVERAGE HEAT FLUX                  8.490E-05   TIME AVG. HEAT FLUX   4.423E-05
 LARGEST RESIDUAL HEAT FLUX         1.188E-06   AT NODE          8   DOF 11
   INSTANCE: PLATE-1                                                                         
 LARGEST INCREMENT OF TEMP.         1.377E-02   AT NODE          8   DOF 11
   INSTANCE: PLATE-1                                                                         
 LARGEST CORRECTION TO TEMP.        1.354E-04   AT NODE          8   DOF 11
   INSTANCE: PLATE-1                                                                         
          HEAT FLUX EQUILIBRIUM NOT ACHIEVED WITHIN TOLERANCE.
 
	UNSYMMETRIC NEW DIRECT SPARSE SOLVER RUNNING ON
 	1 HOST x 1 MPI RANK PER HOST x 2 THREADS PER RANK
        NUMBER OF EQUATIONS:  65612
        NUMBER OF RHS:        1
        NUMBER OF FLOPS:      9.693e+09
        SOLVER ELAPSED TIME:  364ms

               CONVERGENCE CHECKS FOR EQUILIBRIUM ITERATION     2


 AVERAGE FORCE                      7.015E-02   TIME AVG. FORCE       3.662E-02
 LARGEST SCALED RESIDUAL FORCE      2.855E-13   AT NODE          8   DOF  3
   INSTANCE: PLATE-1                                                                         
  CORRESPONDING RESIDUAL FORCE      2.855E-13
 LARGEST INCREMENT OF DISP.         2.365E-04   AT NODE       6707   DOF  3
   INSTANCE: PLATE-1                                                                         
 LARGEST CORRECTION TO DISP.        7.624E-09   AT NODE       6707   DOF  3
   INSTANCE: PLATE-1                                                                         
          THE FORCE     EQUILIBRIUM EQUATIONS HAVE CONVERGED

 AVERAGE HEAT FLUX                  8.490E-05   TIME AVG. HEAT FLUX   4.423E-05
 LARGEST RESIDUAL HEAT FLUX        -2.488E-15   AT NODE       4598   DOF 11
   INSTANCE: PLATE-1                                                                         
 LARGEST INCREMENT OF TEMP.         1.377E-02   AT NODE          8   DOF 11
   INSTANCE: PLATE-1                                                                         
 LARGEST CORRECTION TO TEMP.        4.581E-07   AT NODE          8   DOF 11
   INSTANCE: PLATE-1                                                                         
          THE HEAT FLUX EQUILIBRIUM EQUATIONS HAVE CONVERGED

 ITERATION SUMMARY FOR THE INCREMENT:   2 TOTAL ITERATIONS, OF WHICH
   0 ARE SEVERE DISCONTINUITY ITERATIONS AND  2 ARE EQUILIBRIUM ITERATIONS.

 TIME INCREMENT COMPLETED  1.000E+04,  FRACTION OF STEP COMPLETED  2.200E-02
 STEP TIME COMPLETED       2.200E+05,  TOTAL TIME COMPLETED        2.200E+05


  INCREMENT    23 STARTS. ATTEMPT NUMBER  1, TIME INCREMENT  1.000E+04
 
	UNSYMMETRIC NEW DIRECT SPARSE SOLVER RUNNING ON
 	1 HOST x 1 MPI RANK PER HOST x 2 THREADS PER RANK
        NUMBER OF EQUATIONS:  65612
        NUMBER OF RHS:        1
        NUMBER OF FLOPS:      9.693e+09
        SOLVER ELAPSED TIME:  357ms

               CONVERGENCE CHECKS FOR EQUILIBRIUM ITERATION     1


 AVERAGE FORCE                      7.333E-02   TIME AVG. FORCE       3.821E-02
 LARGEST SCALED RESIDUAL FORCE      1.305E-10   AT NODE       6707   DOF  3
   INSTANCE: PLATE-1                                                                         
  CORRESPONDING RESIDUAL FORCE      1.305E-10
 LARGEST INCREMENT OF DISP.         2.482E-04   AT NODE       6707   DOF  3
   INSTANCE: PLATE-1                                                                         
 LARGEST CORRECTION TO DISP.        1.175E-05   AT NODE       6707   DOF  3
   INSTANCE: PLATE-1                                                                         
          THE FORCE     EQUILIBRIUM RESPONSE WAS LINEAR IN THIS INCREMENT

 AVERAGE HEAT FLUX                  8.900E-05   TIME AVG. HEAT FLUX   4.626E-05
 LARGEST RESIDUAL HEAT FLUX         3.103E-15   AT NODE       5298   DOF 11
   INSTANCE: PLATE-1                                                                         
 LARGEST INCREMENT OF TEMP.         1.391E-02   AT NODE          8   DOF 11
   INSTANCE: PLATE-1                                                                         
 LARGEST CORRECTION TO TEMP.        1.366E-04   AT NODE          8   DOF 11
   INSTANCE: PLATE-1                                                                         
          THE HEAT FLUX EQUILIBRIUM RESPONSE WAS LINEAR IN THIS INCREMENT

 ITERATION SUMMARY FOR THE INCREMENT:   1 TOTAL ITERATIONS, OF WHICH
   0 ARE SEVERE DISCONTINUITY ITERATIONS AND  1 ARE EQUILIBRIUM ITERATIONS.

 TIME INCREMENT COMPLETED  1.000E+04,  FRACTION OF STEP COMPLETED  2.300E-02
 STEP TIME COMPLETED       2.300E+05,  TOTAL TIME COMPLETED        2.300E+05


  INCREMENT    24 STARTS. ATTEMPT NUMBER  1, TIME INCREMENT  1.000E+04
 
	UNSYMMETRIC NEW DIRECT SPARSE SOLVER RUNNING ON
 	1 HOST x 1 MPI RANK PER HOST x 2 THREADS PER RANK
        NUMBER OF EQUATIONS:  65612
        NUMBER OF RHS:        1
        NUMBER OF FLOPS:      9.693e+09
        SOLVER ELAPSED TIME:  23ms

               CONVERGENCE CHECKS FOR EQUILIBRIUM ITERATION     1


 AVERAGE FORCE                      7.650E-02   TIME AVG. FORCE       3.981E-02
 LARGEST SCALED RESIDUAL FORCE      4.289E-09   AT NODE      11094   DOF  2
   INSTANCE: PLATE-1                                                                         
  CORRESPONDING RESIDUAL FORCE      4.289E-09
 LARGEST INCREMENT OF DISP.         2.600E-04   AT NODE       6707   DOF  3
   INSTANCE: PLATE-1                                                                         
 LARGEST CORRECTION TO DISP.        1.178E-05   AT NODE       6707   DOF  3
   INSTANCE: PLATE-1                                                                         
 ESTIMATE OF DISP.    CORRECTION    4.404E-09
 FORCE     EQUILIB. ACCEPTED BASED ON SMALL RESIDUAL AND ESTIMATED CORRECTION

 AVERAGE HEAT FLUX                  9.311E-05   TIME AVG. HEAT FLUX   4.830E-05
 LARGEST RESIDUAL HEAT FLUX         1.192E-06   AT NODE          8   DOF 11
   INSTANCE: PLATE-1                                                                         
 LARGEST INCREMENT OF TEMP.         1.405E-02   AT NODE          8   DOF 11
   INSTANCE: PLATE-1                                                                         
 LARGEST CORRECTION TO TEMP.        1.368E-04   AT NODE          8   DOF 11
   INSTANCE: PLATE-1                                                                         
          HEAT FLUX EQUILIBRIUM NOT ACHIEVED WITHIN TOLERANCE.
 
	UNSYMMETRIC NEW DIRECT SPARSE SOLVER RUNNING ON
 	1 HOST x 1 MPI RANK PER HOST x 2 THREADS PER RANK
        NUMBER OF EQUATIONS:  65612
        NUMBER OF RHS:        1
        NUMBER OF FLOPS:      9.693e+09
        SOLVER ELAPSED TIME:  365ms

               CONVERGENCE CHECKS FOR EQUILIBRIUM ITERATION     2


 AVERAGE FORCE                      7.650E-02   TIME AVG. FORCE       3.981E-02
 LARGEST SCALED RESIDUAL FORCE      3.372E-13   AT NODE          8   DOF  3
   INSTANCE: PLATE-1                                                                         
  CORRESPONDING RESIDUAL FORCE      3.372E-13
 LARGEST INCREMENT OF DISP.         2.600E-04   AT NODE       6707   DOF  3
   INSTANCE: PLATE-1                                                                         
 LARGEST CORRECTION TO DISP.        8.075E-09   AT NODE       6707   DOF  3
   INSTANCE: PLATE-1                                                                         
          THE FORCE     EQUILIBRIUM EQUATIONS HAVE CONVERGED

 AVERAGE HEAT FLUX                  9.311E-05   TIME AVG. HEAT FLUX   4.830E-05
 LARGEST RESIDUAL HEAT FLUX        -2.883E-15   AT NODE       5478   DOF 11
   INSTANCE: PLATE-1                                                                         
 LARGEST INCREMENT OF TEMP.         1.405E-02   AT NODE          8   DOF 11
   INSTANCE: PLATE-1                                                                         
 LARGEST CORRECTION TO TEMP.        4.606E-07   AT NODE          8   DOF 11
   INSTANCE: PLATE-1                                                                         
          THE HEAT FLUX EQUILIBRIUM EQUATIONS HAVE CONVERGED

 ITERATION SUMMARY FOR THE INCREMENT:   2 TOTAL ITERATIONS, OF WHICH
   0 ARE SEVERE DISCONTINUITY ITERATIONS AND  2 ARE EQUILIBRIUM ITERATIONS.

 TIME INCREMENT COMPLETED  1.000E+04,  FRACTION OF STEP COMPLETED  2.400E-02
 STEP TIME COMPLETED       2.400E+05,  TOTAL TIME COMPLETED        2.400E+05


  INCREMENT    25 STARTS. ATTEMPT NUMBER  1, TIME INCREMENT  1.000E+04
 
	UNSYMMETRIC NEW DIRECT SPARSE SOLVER RUNNING ON
 	1 HOST x 1 MPI RANK PER HOST x 2 THREADS PER RANK
        NUMBER OF EQUATIONS:  65612
        NUMBER OF RHS:        1
        NUMBER OF FLOPS:      9.693e+09
        SOLVER ELAPSED TIME:  364ms

               CONVERGENCE CHECKS FOR EQUILIBRIUM ITERATION     1


 AVERAGE FORCE                      7.967E-02   TIME AVG. FORCE       4.140E-02
 LARGEST SCALED RESIDUAL FORCE      1.520E-10   AT NODE       6707   DOF  3
   INSTANCE: PLATE-1                                                                         
  CORRESPONDING RESIDUAL FORCE      1.520E-10
 LARGEST INCREMENT OF DISP.         2.718E-04   AT NODE       6707   DOF  3
   INSTANCE: PLATE-1                                                                         
 LARGEST CORRECTION TO DISP.        1.179E-05   AT NODE       6707   DOF  3
   INSTANCE: PLATE-1                                                                         
          THE FORCE     EQUILIBRIUM RESPONSE WAS LINEAR IN THIS INCREMENT

 AVERAGE HEAT FLUX                  9.725E-05   TIME AVG. HEAT FLUX   5.034E-05
 LARGEST RESIDUAL HEAT FLUX         2.891E-15   AT NODE       1500   DOF 11
   INSTANCE: PLATE-1                                                                         
 LARGEST INCREMENT OF TEMP.         1.419E-02   AT NODE          8   DOF 11
   INSTANCE: PLATE-1                                                                         
 LARGEST CORRECTION TO TEMP.        1.379E-04   AT NODE          8   DOF 11
   INSTANCE: PLATE-1                                                                         
          THE HEAT FLUX EQUILIBRIUM RESPONSE WAS LINEAR IN THIS INCREMENT

 ITERATION SUMMARY FOR THE INCREMENT:   1 TOTAL ITERATIONS, OF WHICH
   0 ARE SEVERE DISCONTINUITY ITERATIONS AND  1 ARE EQUILIBRIUM ITERATIONS.

 TIME INCREMENT COMPLETED  1.000E+04,  FRACTION OF STEP COMPLETED  2.500E-02
 STEP TIME COMPLETED       2.500E+05,  TOTAL TIME COMPLETED        2.500E+05


  INCREMENT    26 STARTS. ATTEMPT NUMBER  1, TIME INCREMENT  1.000E+04
 
	UNSYMMETRIC NEW DIRECT SPARSE SOLVER RUNNING ON
 	1 HOST x 1 MPI RANK PER HOST x 2 THREADS PER RANK
        NUMBER OF EQUATIONS:  65612
        NUMBER OF RHS:        1
        NUMBER OF FLOPS:      9.693e+09
        SOLVER ELAPSED TIME:  23ms

               CONVERGENCE CHECKS FOR EQUILIBRIUM ITERATION     1


 AVERAGE FORCE                      8.285E-02   TIME AVG. FORCE       4.300E-02
 LARGEST SCALED RESIDUAL FORCE      5.125E-09   AT NODE      11094   DOF  2
   INSTANCE: PLATE-1                                                                         
  CORRESPONDING RESIDUAL FORCE      5.125E-09
 LARGEST INCREMENT OF DISP.         2.836E-04   AT NODE       6707   DOF  3
   INSTANCE: PLATE-1                                                                         
 LARGEST CORRECTION TO DISP.        1.183E-05   AT NODE       6707   DOF  3
   INSTANCE: PLATE-1                                                                         
 ESTIMATE OF DISP.    CORRECTION    4.833E-09
 FORCE     EQUILIB. ACCEPTED BASED ON SMALL RESIDUAL AND ESTIMATED CORRECTION

 AVERAGE HEAT FLUX                  1.014E-04   TIME AVG. HEAT FLUX   5.238E-05
 LARGEST RESIDUAL HEAT FLUX         1.195E-06   AT NODE          8   DOF 11
   INSTANCE: PLATE-1                                                                         
 LARGEST INCREMENT OF TEMP.         1.432E-02   AT NODE          8   DOF 11
   INSTANCE: PLATE-1                                                                         
 LARGEST CORRECTION TO TEMP.        1.380E-04   AT NODE          8   DOF 11
   INSTANCE: PLATE-1                                                                         
          HEAT FLUX EQUILIBRIUM NOT ACHIEVED WITHIN TOLERANCE.
 
	UNSYMMETRIC NEW DIRECT SPARSE SOLVER RUNNING ON
 	1 HOST x 1 MPI RANK PER HOST x 2 THREADS PER RANK
        NUMBER OF EQUATIONS:  65612
        NUMBER OF RHS:        1
        NUMBER OF FLOPS:      9.693e+09
        SOLVER ELAPSED TIME:  380ms

               CONVERGENCE CHECKS FOR EQUILIBRIUM ITERATION     2


 AVERAGE FORCE                      8.285E-02   TIME AVG. FORCE       4.300E-02
 LARGEST SCALED RESIDUAL FORCE      3.921E-13   AT NODE          8   DOF  3
   INSTANCE: PLATE-1                                                                         
  CORRESPONDING RESIDUAL FORCE      3.921E-13
 LARGEST INCREMENT OF DISP.         2.836E-04   AT NODE       6707   DOF  3
   INSTANCE: PLATE-1                                                                         
[...]
          THE HEAT FLUX EQUILIBRIUM EQUATIONS HAVE CONVERGED
 
	UNSYMMETRIC NEW DIRECT SPARSE SOLVER RUNNING ON
 	1 HOST x 1 MPI RANK PER HOST x 2 THREADS PER RANK
        NUMBER OF EQUATIONS:  65612
        NUMBER OF RHS:        1
        NUMBER OF FLOPS:      9.693e+09
        SOLVER ELAPSED TIME:  424ms

               CONVERGENCE CHECKS FOR EQUILIBRIUM ITERATION     6


 AVERAGE FORCE                      3.214E-03   TIME AVG. FORCE       0.335    
 LARGEST SCALED RESIDUAL FORCE     -1.236E-03   AT NODE      12116   DOF  3
   INSTANCE: PLATE-1                                                                         
  CORRESPONDING RESIDUAL FORCE     -1.236E-03
 LARGEST INCREMENT OF DISP.         3.484E-02   AT NODE          9   DOF  3
   INSTANCE: PLATE-1                                                                         
 LARGEST CORRECTION TO DISP.       -1.704E-03   AT NODE       6838   DOF  3
   INSTANCE: PLATE-1                                                                         
          DISP.    CORRECTION TOO LARGE COMPARED TO DISP.    INCREMENT

 AVERAGE HEAT FLUX                  6.068E-04   TIME AVG. HEAT FLUX   6.944E-04
 LARGEST RESIDUAL HEAT FLUX         2.499E-15   AT NODE       4061   DOF 11
   INSTANCE: PLATE-1                                                                         
 LARGEST INCREMENT OF TEMP.         2.032E-02   AT NODE        410   DOF 11
   INSTANCE: PLATE-1                                                                         
 LARGEST CORRECTION TO TEMP.        1.410E-14   AT NODE        620   DOF 11
   INSTANCE: PLATE-1                                                                         
          THE HEAT FLUX EQUILIBRIUM EQUATIONS HAVE CONVERGED
 
	UNSYMMETRIC NEW DIRECT SPARSE SOLVER RUNNING ON
 	1 HOST x 1 MPI RANK PER HOST x 2 THREADS PER RANK
        NUMBER OF EQUATIONS:  65612
        NUMBER OF RHS:        1
        NUMBER OF FLOPS:      9.693e+09
        SOLVER ELAPSED TIME:  378ms

               CONVERGENCE CHECKS FOR EQUILIBRIUM ITERATION     7


 AVERAGE FORCE                      3.214E-03   TIME AVG. FORCE       0.335    
 LARGEST SCALED RESIDUAL FORCE     -1.228E-03   AT NODE      12116   DOF  3
   INSTANCE: PLATE-1                                                                         
  CORRESPONDING RESIDUAL FORCE     -1.228E-03
 LARGEST INCREMENT OF DISP.         3.484E-02   AT NODE          9   DOF  3
   INSTANCE: PLATE-1                                                                         
 LARGEST CORRECTION TO DISP.       -1.474E-03   AT NODE        256   DOF  3
   INSTANCE: PLATE-1                                                                         
          DISP.    CORRECTION TOO LARGE COMPARED TO DISP.    INCREMENT

 AVERAGE HEAT FLUX                  6.068E-04   TIME AVG. HEAT FLUX   6.944E-04
 LARGEST RESIDUAL HEAT FLUX         2.540E-15   AT NODE       5413   DOF 11
   INSTANCE: PLATE-1                                                                         
 LARGEST INCREMENT OF TEMP.         2.032E-02   AT NODE        410   DOF 11
   INSTANCE: PLATE-1                                                                         
 LARGEST CORRECTION TO TEMP.        1.116E-14   AT NODE       4764   DOF 11
   INSTANCE: PLATE-1                                                                         
          THE HEAT FLUX EQUILIBRIUM EQUATIONS HAVE CONVERGED
 
	UNSYMMETRIC NEW DIRECT SPARSE SOLVER RUNNING ON
 	1 HOST x 1 MPI RANK PER HOST x 2 THREADS PER RANK
        NUMBER OF EQUATIONS:  65612
        NUMBER OF RHS:        1
        NUMBER OF FLOPS:      9.693e+09
        SOLVER ELAPSED TIME:  382ms

               CONVERGENCE CHECKS FOR EQUILIBRIUM ITERATION     8


 AVERAGE FORCE                      3.214E-03   TIME AVG. FORCE       0.335    
 LARGEST SCALED RESIDUAL FORCE     -1.220E-03   AT NODE      12116   DOF  3
   INSTANCE: PLATE-1                                                                         
  CORRESPONDING RESIDUAL FORCE     -1.220E-03
 LARGEST INCREMENT OF DISP.         3.484E-02   AT NODE          9   DOF  3
   INSTANCE: PLATE-1                                                                         
 LARGEST CORRECTION TO DISP.       -1.311E-03   AT NODE       6631   DOF  3
   INSTANCE: PLATE-1                                                                         
          DISP.    CORRECTION TOO LARGE COMPARED TO DISP.    INCREMENT

 AVERAGE HEAT FLUX                  6.068E-04   TIME AVG. HEAT FLUX   6.944E-04
 LARGEST RESIDUAL HEAT FLUX        -2.664E-15   AT NODE      14907   DOF 11
   INSTANCE: PLATE-1                                                                         
 LARGEST INCREMENT OF TEMP.         2.032E-02   AT NODE        410   DOF 11
   INSTANCE: PLATE-1                                                                         
 LARGEST CORRECTION TO TEMP.        7.931E-15   AT NODE       1853   DOF 11
   INSTANCE: PLATE-1                                                                         
          THE HEAT FLUX EQUILIBRIUM EQUATIONS HAVE CONVERGED
 
	UNSYMMETRIC NEW DIRECT SPARSE SOLVER RUNNING ON
 	1 HOST x 1 MPI RANK PER HOST x 2 THREADS PER RANK
        NUMBER OF EQUATIONS:  65612
        NUMBER OF RHS:        1
        NUMBER OF FLOPS:      9.693e+09
        SOLVER ELAPSED TIME:  392ms

               CONVERGENCE CHECKS FOR EQUILIBRIUM ITERATION     9


 AVERAGE FORCE                      3.214E-03   TIME AVG. FORCE       0.335    
 LARGEST SCALED RESIDUAL FORCE     -1.212E-03   AT NODE      12116   DOF  3
   INSTANCE: PLATE-1                                                                         
  CORRESPONDING RESIDUAL FORCE     -1.212E-03
 LARGEST INCREMENT OF DISP.         3.484E-02   AT NODE          9   DOF  3
   INSTANCE: PLATE-1                                                                         
 LARGEST CORRECTION TO DISP.       -1.098E-03   AT NODE        255   DOF  3
   INSTANCE: PLATE-1                                                                         
          DISP.    CORRECTION TOO LARGE COMPARED TO DISP.    INCREMENT

 AVERAGE HEAT FLUX                  6.068E-04   TIME AVG. HEAT FLUX   6.944E-04
 LARGEST RESIDUAL HEAT FLUX        -2.299E-15   AT NODE       3509   DOF 11
   INSTANCE: PLATE-1                                                                         
 LARGEST INCREMENT OF TEMP.         2.032E-02   AT NODE        410   DOF 11
   INSTANCE: PLATE-1                                                                         
 LARGEST CORRECTION TO TEMP.       -1.757E-14   AT NODE       3769   DOF 11
   INSTANCE: PLATE-1                                                                         
          THE HEAT FLUX EQUILIBRIUM EQUATIONS HAVE CONVERGED
 
	UNSYMMETRIC NEW DIRECT SPARSE SOLVER RUNNING ON
 	1 HOST x 1 MPI RANK PER HOST x 2 THREADS PER RANK
        NUMBER OF EQUATIONS:  65612
        NUMBER OF RHS:        1
        NUMBER OF FLOPS:      9.693e+09
        SOLVER ELAPSED TIME:  383ms

               CONVERGENCE CHECKS FOR EQUILIBRIUM ITERATION    10


 AVERAGE FORCE                      3.214E-03   TIME AVG. FORCE       0.335    
 LARGEST SCALED RESIDUAL FORCE     -1.205E-03   AT NODE      12116   DOF  3
   INSTANCE: PLATE-1                                                                         
  CORRESPONDING RESIDUAL FORCE     -1.205E-03
 LARGEST INCREMENT OF DISP.         3.484E-02   AT NODE          9   DOF  3
   INSTANCE: PLATE-1                                                                         
 LARGEST CORRECTION TO DISP.       -1.017E-03   AT NODE        255   DOF  3
   INSTANCE: PLATE-1                                                                         
          DISP.    CORRECTION TOO LARGE COMPARED TO DISP.    INCREMENT

 AVERAGE HEAT FLUX                  6.068E-04   TIME AVG. HEAT FLUX   6.944E-04
 LARGEST RESIDUAL HEAT FLUX         2.222E-15   AT NODE       5306   DOF 11
   INSTANCE: PLATE-1                                                                         
 LARGEST INCREMENT OF TEMP.         2.032E-02   AT NODE        410   DOF 11
   INSTANCE: PLATE-1                                                                         
 LARGEST CORRECTION TO TEMP.        1.554E-14   AT NODE       4087   DOF 11
   INSTANCE: PLATE-1                                                                         
          THE HEAT FLUX EQUILIBRIUM EQUATIONS HAVE CONVERGED
 
	UNSYMMETRIC NEW DIRECT SPARSE SOLVER RUNNING ON
 	1 HOST x 1 MPI RANK PER HOST x 2 THREADS PER RANK
        NUMBER OF EQUATIONS:  65612
        NUMBER OF RHS:        1
        NUMBER OF FLOPS:      9.693e+09
        SOLVER ELAPSED TIME:  374ms

               CONVERGENCE CHECKS FOR EQUILIBRIUM ITERATION    11


 AVERAGE FORCE                      3.214E-03   TIME AVG. FORCE       0.335    
 LARGEST SCALED RESIDUAL FORCE     -1.198E-03   AT NODE      12116   DOF  3
   INSTANCE: PLATE-1                                                                         
  CORRESPONDING RESIDUAL FORCE     -1.198E-03
 LARGEST INCREMENT OF DISP.         3.484E-02   AT NODE          9   DOF  3
   INSTANCE: PLATE-1                                                                         
 LARGEST CORRECTION TO DISP.       -9.024E-04   AT NODE        255   DOF  3
   INSTANCE: PLATE-1                                                                         
          DISP.    CORRECTION TOO LARGE COMPARED TO DISP.    INCREMENT

 AVERAGE HEAT FLUX                  6.068E-04   TIME AVG. HEAT FLUX   6.944E-04
 LARGEST RESIDUAL HEAT FLUX        -2.543E-15   AT NODE       3399   DOF 11
   INSTANCE: PLATE-1                                                                         
 LARGEST INCREMENT OF TEMP.         2.032E-02   AT NODE        410   DOF 11
   INSTANCE: PLATE-1                                                                         
 LARGEST CORRECTION TO TEMP.       -1.294E-14   AT NODE       4093   DOF 11
   INSTANCE: PLATE-1                                                                         
          THE HEAT FLUX EQUILIBRIUM EQUATIONS HAVE CONVERGED
 
	UNSYMMETRIC NEW DIRECT SPARSE SOLVER RUNNING ON
 	1 HOST x 1 MPI RANK PER HOST x 2 THREADS PER RANK
        NUMBER OF EQUATIONS:  65612
        NUMBER OF RHS:        1
        NUMBER OF FLOPS:      9.693e+09
        SOLVER ELAPSED TIME:  378ms

               CONVERGENCE CHECKS FOR EQUILIBRIUM ITERATION    12


 AVERAGE FORCE                      3.214E-03   TIME AVG. FORCE       0.335    
 LARGEST SCALED RESIDUAL FORCE     -1.191E-03   AT NODE      12116   DOF  3
   INSTANCE: PLATE-1                                                                         
  CORRESPONDING RESIDUAL FORCE     -1.191E-03
 LARGEST INCREMENT OF DISP.         3.484E-02   AT NODE          9   DOF  3
   INSTANCE: PLATE-1                                                                         
 LARGEST CORRECTION TO DISP.       -8.206E-04   AT NODE       6830   DOF  3
   INSTANCE: PLATE-1                                                                         
          DISP.    CORRECTION TOO LARGE COMPARED TO DISP.    INCREMENT

 AVERAGE HEAT FLUX                  6.068E-04   TIME AVG. HEAT FLUX   6.944E-04
 LARGEST RESIDUAL HEAT FLUX         2.484E-15   AT NODE       3399   DOF 11
   INSTANCE: PLATE-1                                                                         
 LARGEST INCREMENT OF TEMP.         2.032E-02   AT NODE        410   DOF 11
   INSTANCE: PLATE-1                                                                         
 LARGEST CORRECTION TO TEMP.        1.919E-14   AT NODE       6706   DOF 11
   INSTANCE: PLATE-1                                                                         
          THE HEAT FLUX EQUILIBRIUM EQUATIONS HAVE CONVERGED
 
	UNSYMMETRIC NEW DIRECT SPARSE SOLVER RUNNING ON
 	1 HOST x 1 MPI RANK PER HOST x 2 THREADS PER RANK
        NUMBER OF EQUATIONS:  65612
        NUMBER OF RHS:        1
        NUMBER OF FLOPS:      9.693e+09
        SOLVER ELAPSED TIME:  370ms

               CONVERGENCE CHECKS FOR EQUILIBRIUM ITERATION    13


 AVERAGE FORCE                      3.214E-03   TIME AVG. FORCE       0.335    
 LARGEST SCALED RESIDUAL FORCE     -1.184E-03   AT NODE      12116   DOF  3
   INSTANCE: PLATE-1                                                                         
  CORRESPONDING RESIDUAL FORCE     -1.184E-03
 LARGEST INCREMENT OF DISP.         3.484E-02   AT NODE          9   DOF  3
   INSTANCE: PLATE-1                                                                         
 LARGEST CORRECTION TO DISP.       -7.773E-04   AT NODE       6830   DOF  3
   INSTANCE: PLATE-1                                                                         
          DISP.    CORRECTION TOO LARGE COMPARED TO DISP.    INCREMENT

 AVERAGE HEAT FLUX                  6.068E-04   TIME AVG. HEAT FLUX   6.944E-04
 LARGEST RESIDUAL HEAT FLUX        -2.440E-15   AT NODE        682   DOF 11
   INSTANCE: PLATE-1                                                                         
 LARGEST INCREMENT OF TEMP.         2.032E-02   AT NODE        410   DOF 11
   INSTANCE: PLATE-1                                                                         
 LARGEST CORRECTION TO TEMP.       -1.191E-14   AT NODE       2912   DOF 11
   INSTANCE: PLATE-1                                                                         
          THE HEAT FLUX EQUILIBRIUM EQUATIONS HAVE CONVERGED
 
	UNSYMMETRIC NEW DIRECT SPARSE SOLVER RUNNING ON
 	1 HOST x 1 MPI RANK PER HOST x 2 THREADS PER RANK
        NUMBER OF EQUATIONS:  65612
        NUMBER OF RHS:        1
        NUMBER OF FLOPS:      9.693e+09
        SOLVER ELAPSED TIME:  373ms

               CONVERGENCE CHECKS FOR EQUILIBRIUM ITERATION    14


 AVERAGE FORCE                      3.214E-03   TIME AVG. FORCE       0.335    
 LARGEST SCALED RESIDUAL FORCE     -1.177E-03   AT NODE      12116   DOF  3
   INSTANCE: PLATE-1                                                                         
  CORRESPONDING RESIDUAL FORCE     -1.177E-03
 LARGEST INCREMENT OF DISP.         3.484E-02   AT NODE          9   DOF  3
   INSTANCE: PLATE-1                                                                         
 LARGEST CORRECTION TO DISP.       -6.716E-04   AT NODE       6830   DOF  3
   INSTANCE: PLATE-1                                                                         
          DISP.    CORRECTION TOO LARGE COMPARED TO DISP.    INCREMENT

 AVERAGE HEAT FLUX                  6.068E-04   TIME AVG. HEAT FLUX   6.944E-04
 LARGEST RESIDUAL HEAT FLUX         2.391E-15   AT NODE       4888   DOF 11
   INSTANCE: PLATE-1                                                                         
 LARGEST INCREMENT OF TEMP.         2.032E-02   AT NODE        410   DOF 11
   INSTANCE: PLATE-1                                                                         
 LARGEST CORRECTION TO TEMP.       -2.308E-14   AT NODE       1660   DOF 11
   INSTANCE: PLATE-1                                                                         
          THE HEAT FLUX EQUILIBRIUM EQUATIONS HAVE CONVERGED
 
	UNSYMMETRIC NEW DIRECT SPARSE SOLVER RUNNING ON
 	1 HOST x 1 MPI RANK PER HOST x 2 THREADS PER RANK
        NUMBER OF EQUATIONS:  65612
        NUMBER OF RHS:        1
        NUMBER OF FLOPS:      9.693e+09
        SOLVER ELAPSED TIME:  368ms

               CONVERGENCE CHECKS FOR EQUILIBRIUM ITERATION    15


 AVERAGE FORCE                      3.214E-03   TIME AVG. FORCE       0.335    
 LARGEST SCALED RESIDUAL FORCE     -1.169E-03   AT NODE      12116   DOF  3
   INSTANCE: PLATE-1                                                                         
  CORRESPONDING RESIDUAL FORCE     -1.169E-03
 LARGEST INCREMENT OF DISP.         3.484E-02   AT NODE          9   DOF  3
   INSTANCE: PLATE-1                                                                         
 LARGEST CORRECTION TO DISP.       -6.100E-04   AT NODE        254   DOF  3
   INSTANCE: PLATE-1                                                                         
          DISP.    CORRECTION TOO LARGE COMPARED TO DISP.    INCREMENT

 AVERAGE HEAT FLUX                  6.068E-04   TIME AVG. HEAT FLUX   6.944E-04
 LARGEST RESIDUAL HEAT FLUX         2.562E-15   AT NODE       3443   DOF 11
   INSTANCE: PLATE-1                                                                         
 LARGEST INCREMENT OF TEMP.         2.032E-02   AT NODE        410   DOF 11
   INSTANCE: PLATE-1                                                                         
 LARGEST CORRECTION TO TEMP.        1.877E-14   AT NODE       9544   DOF 11
   INSTANCE: PLATE-1                                                                         
          THE HEAT FLUX EQUILIBRIUM EQUATIONS HAVE CONVERGED
 
	UNSYMMETRIC NEW DIRECT SPARSE SOLVER RUNNING ON
 	1 HOST x 1 MPI RANK PER HOST x 2 THREADS PER RANK
        NUMBER OF EQUATIONS:  65612
        NUMBER OF RHS:        1
        NUMBER OF FLOPS:      9.693e+09
        SOLVER ELAPSED TIME:  362ms

               CONVERGENCE CHECKS FOR EQUILIBRIUM ITERATION    16


 AVERAGE FORCE                      3.214E-03   TIME AVG. FORCE       0.335    
 LARGEST SCALED RESIDUAL FORCE     -1.162E-03   AT NODE      12116   DOF  3
   INSTANCE: PLATE-1                                                                         
  CORRESPONDING RESIDUAL FORCE     -1.162E-03
 LARGEST INCREMENT OF DISP.         3.484E-02   AT NODE          9   DOF  3
   INSTANCE: PLATE-1                                                                         
 LARGEST CORRECTION TO DISP.       -5.685E-04   AT NODE        254   DOF  3
   INSTANCE: PLATE-1                                                                         
          DISP.    CORRECTION TOO LARGE COMPARED TO DISP.    INCREMENT

 AVERAGE HEAT FLUX                  6.068E-04   TIME AVG. HEAT FLUX   6.944E-04
 LARGEST RESIDUAL HEAT FLUX        -2.845E-15   AT NODE       3828   DOF 11
   INSTANCE: PLATE-1                                                                         
 LARGEST INCREMENT OF TEMP.         2.032E-02   AT NODE        410   DOF 11
   INSTANCE: PLATE-1                                                                         
 LARGEST CORRECTION TO TEMP.        1.381E-14   AT NODE       6885   DOF 11
   INSTANCE: PLATE-1                                                                         
          THE HEAT FLUX EQUILIBRIUM EQUATIONS HAVE CONVERGED
 

 ***NOTE: THE SOLUTION FAILS TO CONVERGE IN THE MAXIMUM NUMBER OF EQUILIBRIUM 
          ITERATIONS ALLOWED.
 

 ***ERROR: FIXED TIME INCREMENT IS TOO LARGE

 ***ERROR: THE ANALYSIS HAS BEEN TERMINATED DUE TO PREVIOUS ERRORS. ALL OUTPUT 
           REQUESTS HAVE BEEN WRITTEN FOR THE LAST CONVERGED INCREMENT.



     ANALYSIS SUMMARY:
     TOTAL OF        332  INCREMENTS
                       1  CUTBACKS IN AUTOMATIC INCREMENTATION
                     388  ITERATIONS INCLUDING CONTACT ITERATIONS IF PRESENT
                     388  PASSES THROUGH THE EQUATION SOLVER OF WHICH 
                     313  INVOLVE MATRIX DECOMPOSITION, INCLUDING
                       0  DECOMPOSITION(S) OF THE MASS MATRIX
                       1  REORDERING OF EQUATIONS TO MINIMIZE WAVEFRONT
                       0  ADDITIONAL RESIDUAL EVALUATIONS FOR LINE SEARCHES
                       0  ADDITIONAL OPERATOR EVALUATIONS FOR LINE SEARCHES
                       5  WARNING MESSAGES DURING USER INPUT PROCESSING
                       1  WARNING MESSAGES DURING ANALYSIS
                       0  ANALYSIS WARNINGS ARE NUMERICAL PROBLEM MESSAGES
                       0  ANALYSIS WARNINGS ARE NEGATIVE EIGENVALUE MESSAGES
                       2  ERROR MESSAGES



     JOB TIME SUMMARY
       USER TIME (SEC)      =     3.59E+02
       SYSTEM TIME (SEC)    =      20.    
       TOTAL CPU TIME (SEC) =     3.79E+02
       WALLCLOCK TIME (SEC) =          319
       MEMORY PEAK (GB)     =            0
