*Heading
** Job name: phase_field_plate Model name: Model-2
** Generated by: Abaqus/CAE 2023.HF4
*Preprint, echo=NO, model=NO, history=NO, contact=NO
**
** PARTS
**
*Part, name=plate
*Node
1, 0.0643564388,           0.
2,  0.123762377,           0.
3,  0.188118815,           0.
4,  0.247524753,           0.
5,  0.311881185,           0.
6,  0.376237631,           0.
7,  0.435643554,           0.
8,           0.,           0.
9,          0.5,           0.
10,          0.5,  0.459276021
11,          0.5,  0.386433035
12,          0.5,  0.353905112
13,          0.5,  0.295722485
14,          0.5,  0.245634854
15,          0.5,   0.20251596
16,          0.5,   0.14882049
17,          0.5,  0.105931744
18,          0.5,  0.052759096
19,          0.5,          0.5
20, -0.460000008,          0.5
** ... 16383 like lines cut
*************************************************
*User element, nodes=8, type=U1, properties=5, coordinates=2, var=44
1,2                                              
1,3                                              
1,11                                             
*************************************************
*ELEMENT, TYPE=U1, ELSET=SOLID
1,   257,   258,   319,   318,  5501,  5502,  5503,  5504
2,   258,   259,   355,   319,  5505,  5506,  5507,  5502
3,   246,   247,   345,   320,  5508,  5509,  5510,  5511
4,   594,   523,   461,   600,  5512,  5513,  5514,  5515
5,  1199,  1312,  1200,  1086,  5516,  5517,  5518,  5519
6,  1430,  1611,  1528,  2675,  5520,  5521,  5522,  5523
7,  1915,  2683,   104,  2028,  5524,  5525,  5526,  5527
8,  2121,  2197,  2165,  2076,  5528,  5529,  5530,  5531
9,   121,  2351,  2337,  2608,  5532,  5533,  5534,  5535
10,  2574,  2389,  2391,  2393,  5536,  5537,  5538,  5539
11,   154,  2508,  2446,  2428,  5540,  5541,  5542,  5543
12,  2474,  2429,   169,  2518,  5544,  5545,  5546,  5547
13,   291,   169,  2429,    28,  5548,  5545,  5549,  5550
14,  2477,    27,    26,  2430,  5551,  5552,  5553,  5554
15,  2477,  2430,   170,  2502,  5554,  5555,  5556,  5557
16,  2472,   158,  2483,   157,  5558,  5559,  5560,  5561
17,   143,  2259,  2427,  2401,  5562,  5563,  5564,  5565
18,   127,  2166,  2202,  2229,  5566,  5567,  5568,  5569
19,  2407,  2129,  2083,  2624,  5570,  5571,  5572,  5573
20,  2638,  2656,  2075,  2122,  5574,  5575,  5576,  5577
** ... 5384 like lines cut
*******************************************************
*UEL PROPERTY, ELSET=SOLID                             
210000., 0.3, 0.05, 2.7, 0.0127                        
** Young's modulus E, Poisson ratio nu, length scale lc
** critical energy release rate Gc, diffusivity D      
*******************************************************
*ELEMENT, TYPE=CPE8R, ELSET=VISUALIZATION
10001, 257, 258, 319, 318, 5501, 5502, 5503, 5504
10002, 258, 259, 355, 319, 5505, 5506, 5507, 5502
10003, 246, 247, 345, 320, 5508, 5509, 5510, 5511
10004, 594, 523, 461, 600, 5512, 5513, 5514, 5515
10005, 1199, 1312, 1200, 1086, 5516, 5517, 5518, 5519
10006, 1430, 1611, 1528, 2675, 5520, 5521, 5522, 5523
10007, 1915, 2683, 104, 2028, 5524, 5525, 5526, 5527
10008, 2121, 2197, 2165, 2076, 5528, 5529, 5530, 5531
10009, 121, 2351, 2337, 2608, 5532, 5533, 5534, 5535
10010, 2574, 2389, 2391, 2393, 5536, 5537, 5538, 5539
10011, 154, 2508, 2446, 2428, 5540, 5541, 5542, 5543
10012, 2474, 2429, 169, 2518, 5544, 5545, 5546, 5547
10013, 291, 169, 2429, 28, 5548, 5545, 5549, 5550
10014, 2477, 27, 26, 2430, 5551, 5552, 5553, 5554
10015, 2477, 2430, 170, 2502, 5554, 5555, 5556, 5557
10016, 2472, 158, 2483, 157, 5558, 5559, 5560, 5561
10017, 143, 2259, 2427, 2401, 5562, 5563, 5564, 5565
10018, 127, 2166, 2202, 2229, 5566, 5567, 5568, 5569
10019, 2407, 2129, 2083, 2624, 5570, 5571, 5572, 5573
10020, 2638, 2656, 2075, 2122, 5574, 5575, 5576, 5577
** ... 5384 like lines cut
*Nset, nset=whole_plate, generate
1,  16403,      1
*Elset, elset=whole_plate, generate
1,  5404,     1
** Section: Section-1
*Solid Section, elset=VISUALIZATION, material=user_material
,
*End Part
**
**
** ASSEMBLY
**
*Assembly, name=Assembly
**
*Instance, name=plate-1, part=plate
*End Instance
**
*Nset, nset=bottom_side, instance=plate-1
2838,  2852,  2855,  2856,  2857,  2859,  2860,  2861,  2862,  2863,  2864,  2865,  2866,  2867,  2868,  2869
2870,  2871,  2872,  2873,  2874,  2875,  2876,  2905,  2908,  2910, 11099, 11132, 11168, 11170, 11488, 11517
11542, 11564, 11579, 11582, 11594, 11600, 11603, 11610, 11611, 11614, 11615, 11638, 11665, 11666, 12204, 12206
12209, 12210, 16320
*Elset, elset=bottom_side, instance=plate-1
2741, 2750, 2759, 2760, 2847, 2856, 2864, 2871, 2876, 2877, 2881, 2884, 2885, 2887, 2888, 2889
2890, 2896, 2903, 2904, 3108, 3109, 3110, 3111, 5242
*Nset, nset=left_side, instance=plate-1
37,    38,    39,    40,    41,    42,    43,    44,    45,    46,    47,   295,   296,  2831,  2834,  2835
2840,  2858,  2870,  2890,  2895,  2898,  2903,  2921,  2922,  2924,  6079,  6085,  6086,  6089,  6092,  6095
6104,  6110,  6272,  6342,  6704, 11018, 11137, 11455, 11489, 11491, 11518, 11543, 11566, 11585, 11607, 11609
12203, 16323
*Elset, elset=left_side, instance=plate-1
156,  158,  159,  160,  161,  162,  164,  166,  210,  234,  360, 2594, 2751, 2838, 2848, 2849
2857, 2865, 2872, 2878, 2886, 2887, 3107, 5245
*Nset, nset=right_side, instance=plate-1
9,    10,    11,    12,    13,    14,    15,    16,    17,    18,    19,   269,   270,   271,   272,   273
274,   275,   276,   277,   278,   279,   280,   281,   282,   283,   284,   285,   286,   287,  2832,  2836
2838,  2839,  2877,  2878,  2879,  2880,  2881,  2882,  2883,  2884,  2885,  2886,  2887,  2888,  2889,  2891
2892,  2893,  2894,  2896,  2897,  2899,  2900,  2902,  2904,  2906,  2909,  5732,  5767,  5801,  5826,  5846
5863,  5878,  5882,  5895,  5900,  6659,  6661,  6663,  6664,  6667,  6668,  6671,  6673,  6676,  6680,  6683
6684,  6687,  6692,  6696,  7011,  7239,  7240, 10945, 11061, 11067, 11071, 11095, 11097, 11708, 11710, 11714
11718, 11721, 12145, 12211, 12227, 12229, 12232, 12234, 12237, 12241, 12242, 12245, 12247, 12249, 12250, 12252
12253, 12397, 12404, 12699, 16306
*Elset, elset=right_side, instance=plate-1
60,   69,   78,   85,   90,   95,   99,  100,  104,  106,  340,  341,  342,  343,  344,  345
346,  347,  348,  349,  350,  351,  352,  354,  355,  491,  607,  608, 2521, 2732, 2733, 2734
2740, 2741, 2916, 2917, 2918, 2919, 2920, 3083, 3112, 3117, 3118, 3119, 3120, 3121, 3122, 3123
3124, 3125, 3126, 3127, 3128, 3129, 3198, 3200, 3354, 5230
*Nset, nset=top_side, instance=plate-1
19,    20,    21,    22,    23,    24,    25,    26,    27,    28,    29,    30,    31,    32,    33,    34
35,    36,    37,   288,   289,   290,   291,   292,   293,   294,  5550,  5552,  5763,  5797,  5822,  5839
5855,  5859,  5883,  5887,  5898,  5899,  5902,  5904,  5939,  5978,  5979,  6014,  6049,  6084,  6700,  6701
6702, 10975, 11021
*Elset, elset=top_side, instance=plate-1
13,   14,   68,   77,   84,   89,   93,   94,  101,  102,  105,  106,  107,  108,  117,  128
129,  138,  148,  158,  357,  358,  359, 2551, 2598
*Nset, nset=whole_plate, instance=plate-1, generate
1,  16403,      1
*Elset, elset=whole_plate, instance=plate-1, generate
1,  5404,     1
*End Assembly
*Amplitude, name=Amp-1
0.,              1.,       10000000.,              1.
**
** MATERIALS
**
*Material, name=user_material
*Density
1.,
*Depvar       
  11,         
1, S11, S11   
2, S22, S22   
3, S33, S33   
4, S12, S12   
5, E11, E11   
6, E22, E22   
7, E33, E33   
8, E12, E12   
9, PHI, PHI   
10, SH, SH   
11, CL, CL   
*Specific Heat
1.,
*User Material, constants=1
0.,
**
** BOUNDARY CONDITIONS
**
** Name: BC-1 Type: Displacement/Rotation
*Boundary
bottom_side, 1, 1
bottom_side, 2, 2
**
** PREDEFINED FIELDS
**
** Name: Predefined Field-1   Type: Temperature
*Initial Conditions, type=TEMPERATURE
whole_plate, 1.0
** ----------------------------------------------------------------
**
** STEP: Step-1
**
*Step, name=Step-1, nlgeom=NO, amplitude=RAMP, inc=1000000
*Coupled Temperature-displacement, creep=none
10000., 1e+07,
**
** BOUNDARY CONDITIONS
**
** Name: BC-2 Type: Displacement/Rotation
*Boundary
top_side, 2, 2, 0.01
** Name: BC-3 Type: Temperature
*Boundary, amplitude=Amp-1
bottom_side, 11, 11, 1.0
** Name: BC-4 Type: Temperature
*Boundary, amplitude=Amp-1
left_side, 11, 11, 1.0
** Name: BC-5 Type: Temperature
*Boundary, amplitude=Amp-1
right_side, 11, 11, 1.0
**
** OUTPUT REQUESTS
**
*Restart, write, frequency=0
**
** FIELD OUTPUT: F-Output-1
**
*Output, field
*Node Output
CF, NT, RF, RFL, U
*Element Output, directions=YES
E, HFL, SDV
**
** HISTORY OUTPUT: H-Output-1
**
*Output, history, frequency=10
*Node Output, nset=bottom_side
RF2,
**
** HISTORY OUTPUT: H-Output-2
**
*Node Output, nset=top_side
U2,
*End Step
