*Heading
** Job name: NDBR6_H2_Explicit Model name: Model-1
** Generated by: Abaqus/CAE 2023
*Preprint, echo=NO, model=NO, history=NO, contact=NO
**
** PARTS
**
*Part, name=Part-1
*End Part
**  
**
** ASSEMBLY
**
*Assembly, name=Assembly
**  
*Instance, name=Part-1-1, part=Part-1
*Node
      1,          7.5,   4.87339735,          0.5
      2,           5.,           0.,          0.5
      3,           5.,           0.,           0.
      4,          7.5,   4.87339735,           0.
      5,           0.,           0.,          0.5
      6,           0.,           0.,           0.
      7,           0.,   4.87339735,           0.
      8,           0.,   4.87339735,          0.5
      9,           0.,           8.,           0.
     10,          7.5,           8.,           0.
     11,          7.5,           6.,           0.
     12,           0.,           6.,           0.
     13,          7.5,           8.,          0.5
     14,           0.,           8.,          0.5
     15,           0.,           6.,          0.5
     16,          7.5,           6.,          0.5
     17,           0.,         100.,           0.
     18,          7.5,         100.,           0.
     19,          7.5,         100.,          0.5
     20,           0.,         100.,          0.5
** ... 32326 like lines cut
*Element, type=C3D8RT
    1,   335,  2383, 14143,  1791,     1,    21,  1343,   140
    2,  2383,  2384, 14144, 14143,    21,    22,  1344,  1343
    3,  2384,  2385, 14145, 14144,    22,    23,  1345,  1344
    4,  2385,  2386, 14146, 14145,    23,    24,  1346,  1345
    5,  2386,  2387, 14147, 14146,    24,    25,  1347,  1346
    6,  2387,  2388, 14148, 14147,    25,    26,  1348,  1347
    7,  2388,  2389, 14149, 14148,    26,    27,  1349,  1348
    8,  2389,  2390, 14150, 14149,    27,    28,  1350,  1349
    9,  2390,  2391, 14151, 14150,    28,    29,  1351,  1350
   10,  2391,  2392, 14152, 14151,    29,    30,  1352,  1351
   11,  2392,  2393, 14153, 14152,    30,    31,  1353,  1352
   12,  2393,  2394, 14154, 14153,    31,    32,  1354,  1353
   13,  2394,  2395, 14155, 14154,    32,    33,  1355,  1354
   14,  2395,  2396, 14156, 14155,    33,    34,  1356,  1355
   15,  2396,  2397, 14157, 14156,    34,    35,  1357,  1356
   16,  2397,  2398, 14158, 14157,    35,    36,  1358,  1357
   17,  2398,  2399, 14159, 14158,    36,    37,  1359,  1358
   18,  2399,  2400, 14160, 14159,    37,    38,  1360,  1359
   19,  2400,  2401, 14161, 14160,    38,    39,  1361,  1360
   20,  2401,  2402, 14162, 14161,    39,    40,  1362,  1361
** ... 25146 like lines cut
*Nset, nset=Set-1, generate
     1,  32346,      1
*Elset, elset=Set-1, generate
     1,  25166,      1
** Section: Section-1
*Solid Section, elset=Set-1, controls=EC-1, material=DAM_MAT
,
*End Instance
**  
*Node
      1,           0.,         125.,           0.
*Elset, elset=CRACK_SURF, instance=Part-1-1, generate
    57,  21375,     57
*Elset, elset=CRIT_ELE, instance=Part-1-1
    57,   114,   171,   228,   285,   342,   399,   456,   513,   570,   627,   684,   741,   798,   855,   912
   969,  1026,  1083,  1140,  1197,  1254,  1311,  1368,  1425, 10032, 10089, 10146, 10203, 10260, 10317, 10374
 10431, 10488, 10545, 10602, 10659, 10716, 10773, 10830, 10887, 10944, 11001, 11058, 11115, 11172, 11229, 11286
 11343, 11400, 11457, 11514, 11571, 11628, 11685, 20007, 20064, 20121, 20178, 20235, 20292, 20349, 20406, 20463
 20520, 20577, 20634, 20691, 20748, 20805, 20862, 20919, 20976, 21033, 21090, 21147, 21204, 21261, 21318, 21375
*Nset, nset=RF_POINT
 1,
*Elset, elset=STRESS_POINT, instance=Part-1-1
 21375,
*Nset, nset=Set-17, instance=Part-1-1, generate
     1,  32346,      1
*Elset, elset=Set-17, instance=Part-1-1, generate
     1,  25166,      1
*Nset, nset=Set-18, instance=Part-1-1
     1,     2,     3,     4,     5,     8,    10,    11,    13,    14,    15,    16,    17,    18,    19,    20
    21,    22,    23,    24,    25,    26,    27,    28,    29,    30,    31,    32,    33,    34,    35,    36
    37,    38,    39,    40,    41,    42,    43,    44,    45,    46,    47,    48,    49,    50,    51,    52
    53,    54,    55,    56,    57,    58,    59,    60,    61,    62,    63,    64,    65,    66,    67,    68
    69,    70,    71,    72,    73,    74,    75,    76,    77,    78,    79,    80,    81,    82,    83,    84
    85,    86,    87,    88,    89,    90,    91,    92,    93,    94,    95,    96,    97,    98,    99,   100
   101,   102,   103,   104,   105,   106,   107,   108,   109,   110,   111,   112,   113,   114,   115,   116
   117,   118,   119,   120,   121,   122,   123,   124,   125,   126,   127,   128,   129,   130,   131,   132
   133,   134,   135,   136,   137,   138,   139,   140,   141,   142,   143,   144,   145,   146,   147,   148
   149,   150,   151,   152,   153,   154,   155,   156,   157,   158,   159,   160,   161,   162,   163,   164
   165,   166,   167,   168,   169,   170,   171,   172,   173,   174,   175,   176,   177,   178,   179,   180
   181,   182,   183,   184,   185,   186,   187,   188,   189,   190,   191,   192,   193,   194,   195,   196
   335,   336,   337,   338,   339,   340,   341,   342,   343,   344,   345,   346,   347,   348,   349,   350
   351,   352,   353,   354,   355,   356,   357,   358,   359,   360,   361,   362,   363,   364,   365,   366
   367,   368,   369,   370,   371,   372,   373,   374,   375,   376,   377,   378,   379,   380,   381,   382
   383,   384,   385,   386,   387,   388,   389,   390,   391,   392,   393,   394,   395,   396,   397,   398
   399,   400,   401,   402,   403,   404,   405,   406,   407,   408,   483,   484,   485,   486,   487,   488
   489,   490,   491,   492,   493,   494,   495,   496,   497,   498,   499,   500,   501,   502,   503,   504
   505,   506,   507,   508,   509,   510,   511,   512,   513,   514,   515,   516,   517,   518,   519,   520
   521,   522,   523,   524,   525,   526,   527,   528,   529,   530,   531,   532,   533,   534,   535,   536
** ... 418 like lines cut
*Elset, elset=Set-18, instance=Part-1-1
     1,     2,     3,     4,     5,     6,     7,     8,     9,    10,    11,    12,    13,    14,    15,    16
    17,    18,    19,    20,    21,    22,    23,    24,    25,    26,    27,    28,    29,    30,    31,    32
    33,    34,    35,    36,    37,    38,    39,    40,    41,    42,    43,    44,    45,    46,    47,    48
    49,    50,    51,    52,    53,    54,    55,    56,    57,    58,    59,    60,    61,    62,    63,    64
    65,    66,    67,    68,    69,    70,    71,    72,    73,    74,    75,    76,    77,    78,    79,    80
    81,    82,    83,    84,    85,    86,    87,    88,    89,    90,    91,    92,    93,    94,    95,    96
    97,    98,    99,   100,   101,   102,   103,   104,   105,   106,   107,   108,   109,   110,   111,   112
   113,   114,   115,   116,   117,   118,   119,   120,   121,   122,   123,   124,   125,   126,   127,   128
   129,   130,   131,   132,   133,   134,   135,   136,   137,   138,   139,   140,   141,   142,   143,   144
   145,   146,   147,   148,   149,   150,   151,   152,   153,   154,   155,   156,   157,   158,   159,   160
   161,   162,   163,   164,   165,   166,   167,   168,   169,   170,   171,   172,   173,   174,   175,   176
   177,   178,   179,   180,   181,   182,   183,   184,   185,   186,   187,   188,   189,   190,   191,   192
   193,   194,   195,   196,   197,   198,   199,   200,   201,   202,   203,   204,   205,   206,   207,   208
   209,   210,   211,   212,   213,   214,   215,   216,   217,   218,   219,   220,   221,   222,   223,   224
   225,   226,   227,   228,   229,   230,   231,   232,   233,   234,   235,   236,   237,   238,   239,   240
   241,   242,   243,   244,   245,   246,   247,   248,   249,   250,   251,   252,   253,   254,   255,   256
   257,   258,   259,   260,   261,   262,   263,   264,   265,   266,   267,   268,   269,   270,   271,   272
   273,   274,   275,   276,   277,   278,   279,   280,   281,   282,   283,   284,   285,   286,   287,   288
   289,   290,   291,   292,   293,   294,   295,   296,   297,   298,   299,   300,   301,   302,   303,   304
   305,   306,   307,   308,   309,   310,   311,   312,   313,   314,   315,   316,   317,   318,   319,   320
** ... 388 like lines cut
*Nset, nset=XSYM, instance=Part-1-1
     5,     6,     7,     8,     9,    12,    14,    15,    17,    20,   141,   142,   143,   144,   145,   146
   147,   148,   149,   150,   151,   152,   153,   154,   155,   156,   157,   158,   159,   160,   161,   162
   163,   164,   165,   166,   167,   168,   169,   170,   171,   172,   173,   174,   175,   176,   177,   178
   179,   180,   181,   182,   183,   184,   185,   186,   187,   188,   189,   190,   191,   192,   193,   194
   195,   196,   197,   198,   199,   200,   201,   202,   203,   204,   205,   206,   207,   208,   209,   210
   211,   212,   213,   214,   215,   216,   217,   218,   219,   220,   221,   222,   223,   224,   225,   226
   227,   228,   229,   230,   231,   232,   233,   234,   235,   236,   237,   238,   239,   240,   241,   242
   243,   244,   245,   246,   247,   248,   249,   250,   251,   252,   253,   254,   255,   256,   257,   258
   259,   260,   645,   646,   647,   648,   649,   650,   658,   659,   660,   661,   662,   663,   759,   760
   761,   762,   763,   764,   765,   766,   767,   768,   769,   770,   771,   772,   919,   920,   921,   922
   923,   924,   925,   926,   927,   928,   929,   930,   931,   932,   933,   934,   935,   936,   937,   938
   939,   940,   941,   942,   943,   944,   945,   946,   947,   948,   949,   950,   951,   952,   953,   954
   955,   956,   957,   958,   959,   960,   961,   962,   963,   964,   965,   966,   967,   968,   969,   970
   971,   972,   973,   974,   975,   976,   977,   978,   979,   980,   981,   982,   983,   984,   985,   986
   987,   988,   989,   990,   991,   992,   993,   994,   995,   996,   997,   998,   999,  1000,  1001,  1002
  1003,  1004,  1005,  1006,  1007,  1008,  1009,  1010,  1011,  1012,  1013,  1014,  1015,  1016,  1017,  1018
  1019,  1020,  1021,  1022,  1023,  1024,  1025,  1026,  1027,  1028,  1029,  1030,  1031,  1032,  1033,  1034
  1035,  1036,  1037,  1038,  1039,  1040,  1041,  1042,  1043,  1044,  1045,  1046,  1047,  1048,  1049,  1050
  1051,  1052,  1053,  1054,  1055,  1056,  1057,  1065,  1066,  1067,  1068,  1069,  1070,  1071,  1072,  1073
  1074,  1075,  1076,  1077,  1078,  1079,  1080,  1081,  1082,  1083,  1084,  1085,  1086,  1087,  1088,  1089
** ... 23 like lines cut
*Elset, elset=XSYM, instance=Part-1-1
 21091, 21092, 21093, 21094, 21095, 21096, 21097, 21098, 21099, 21100, 21101, 21102, 21103, 21104, 21105, 21106
 21107, 21108, 21109, 21110, 21111, 21112, 21113, 21114, 21115, 21116, 21117, 21118, 21119, 21120, 21121, 21122
 21123, 21124, 21125, 21126, 21127, 21128, 21129, 21130, 21131, 21132, 21133, 21134, 21135, 21136, 21137, 21138
 21139, 21140, 21141, 21142, 21143, 21144, 21145, 21146, 21147, 21148, 21149, 21150, 21151, 21152, 21153, 21154
 21155, 21156, 21157, 21158, 21159, 21160, 21161, 21162, 21163, 21164, 21165, 21166, 21167, 21168, 21169, 21170
 21171, 21172, 21173, 21174, 21175, 21176, 21177, 21178, 21179, 21180, 21181, 21182, 21183, 21184, 21185, 21186
 21187, 21188, 21189, 21190, 21191, 21192, 21193, 21194, 21195, 21196, 21197, 21198, 21199, 21200, 21201, 21202
 21203, 21204, 21205, 21206, 21207, 21208, 21209, 21210, 21211, 21212, 21213, 21214, 21215, 21216, 21217, 21218
 21219, 21220, 21221, 21222, 21223, 21224, 21225, 21226, 21227, 21228, 21229, 21230, 21231, 21232, 21233, 21234
 21235, 21236, 21237, 21238, 21239, 21240, 21241, 21242, 21243, 21244, 21245, 21246, 21247, 21248, 21249, 21250
 21251, 21252, 21253, 21254, 21255, 21256, 21257, 21258, 21259, 21260, 21261, 21262, 21263, 21264, 21265, 21266
 21267, 21268, 21269, 21270, 21271, 21272, 21273, 21274, 21275, 21276, 21277, 21278, 21279, 21280, 21281, 21282
 21283, 21284, 21285, 21286, 21287, 21288, 21289, 21290, 21291, 21292, 21293, 21294, 21295, 21296, 21297, 21298
 21299, 21300, 21301, 21302, 21303, 21304, 21305, 21306, 21307, 21308, 21309, 21310, 21311, 21312, 21313, 21314
 21315, 21316, 21317, 21318, 21319, 21320, 21321, 21322, 21323, 21324, 21325, 21326, 21327, 21328, 21329, 21330
 21331, 21332, 21333, 21334, 21335, 21336, 21337, 21338, 21339, 21340, 21341, 21342, 21343, 21344, 21345, 21346
 21347, 21348, 21349, 21350, 21351, 21352, 21353, 21354, 21355, 21356, 21357, 21358, 21359, 21360, 21361, 21362
 21363, 21364, 21365, 21366, 21367, 21368, 21369, 21370, 21371, 21372, 21373, 21374, 21375, 21433, 21434, 21435
 21436, 21486, 21491, 21542, 24015, 24016, 24017, 24018, 24019, 24020, 24021, 24022, 24023, 24024, 24025, 24026
 24027, 24028, 24029, 24030, 24031, 24032, 24033, 24034, 24035, 24036, 24037, 24038, 24039, 24040, 24041, 24042
** ... 9 like lines cut
*Nset, nset=YSYM, instance=Part-1-1
    2,    3,    5,    6,   77,   78,   79,   80,  197,  198,  199,  200,  409,  410,  411,  412
  413,  414,  415,  416,  417,  418,  419,  420,  421,  422,  423,  424,  425,  426,  427,  428
  429,  430,  431,  432,  433,  434,  435,  436,  437,  438,  439,  440,  441,  442,  443,  444
  445,  446,  447,  448,  449,  450,  451,  452,  453,  454,  455,  456,  457,  458,  459,  460
  461,  462,  463,  464,  465,  466,  467,  468,  469,  470,  471,  472,  473,  474,  475,  476
  477,  478,  479,  480,  481,  482,  483,  484,  485,  486,  487,  488,  489,  490,  491,  492
  493,  494,  495,  496,  497,  498,  499,  500,  501,  502,  503,  504,  505,  506,  507,  508
  509,  510,  511,  512,  513,  514,  515,  516,  517,  518,  519,  520,  521,  522,  523,  524
  525,  526,  527,  528,  529,  530,  531,  532,  533,  534,  535,  536,  537,  538,  539,  540
  541,  542,  543,  544,  545,  546,  547,  548,  549,  550,  551,  552,  553,  554,  555,  556
 2087, 2088, 2089, 2090, 2091, 2092, 2093, 2094, 2095, 2096, 2097, 2098, 2099, 2100, 2101, 2102
 2103, 2104, 2105, 2106, 2107, 2108, 2109, 2110, 2111, 2112, 2113, 2114, 2115, 2116, 2117, 2118
 2119, 2120, 2121, 2122, 2123, 2124, 2125, 2126, 2127, 2128, 2129, 2130, 2131, 2132, 2133, 2134
 2135, 2136, 2137, 2138, 2139, 2140, 2141, 2142, 2143, 2144, 2145, 2146, 2147, 2148, 2149, 2150
 2151, 2152, 2153, 2154, 2155, 2156, 2157, 2158, 2159, 2160, 2161, 2162, 2163, 2164, 2165, 2166
 2167, 2168, 2169, 2170, 2171, 2172, 2173, 2174, 2175, 2176, 2177, 2178, 2179, 2180, 2181, 2182
 2183, 2184, 2185, 2186, 2187, 2188, 2189, 2190, 2191, 2192, 2193, 2194, 2195, 2196, 2197, 2198
 2199, 2200, 2201, 2202, 2203, 2204, 2205, 2206, 2207, 2208, 2209, 2210, 2211, 2212, 2213, 2214
 2215, 2216, 2217, 2218, 2219, 2220, 2221, 2222, 2223, 2224, 2225, 2226, 2227, 2228, 2229, 2230
 2231, 2232, 2233, 2234, 2235, 2236, 2237, 2238, 2239, 2240, 2241, 2242, 2243, 2244, 2245, 2246
** ... 9 like lines cut
*Elset, elset=YSYM, instance=Part-1-1, generate
    57,  21375,     57
*Nset, nset=ZSYM, instance=Part-1-1
     3,     4,     6,     7,     9,    10,    11,    12,    17,    18,    81,    82,    83,    84,    85,    86
    87,    88,    89,    90,    91,    92,    93,    94,    95,    96,    97,    98,    99,   100,   101,   102
   103,   104,   105,   106,   107,   108,   109,   110,   111,   112,   113,   114,   115,   116,   117,   118
   119,   120,   121,   122,   123,   124,   125,   126,   127,   128,   129,   130,   131,   132,   133,   134
   135,   136,   201,   202,   203,   204,   205,   206,   207,   208,   209,   210,   211,   212,   213,   214
   215,   216,   217,   218,   219,   220,   221,   222,   223,   224,   225,   226,   227,   228,   229,   230
   231,   232,   233,   234,   235,   236,   237,   238,   239,   240,   241,   242,   243,   244,   245,   246
   247,   248,   249,   250,   251,   252,   253,   254,   255,   256,   261,   262,   263,   264,   265,   266
   267,   268,   269,   270,   271,   272,   273,   274,   275,   276,   277,   278,   279,   280,   281,   282
   283,   284,   285,   286,   287,   288,   289,   290,   291,   292,   293,   294,   295,   296,   297,   298
   299,   300,   301,   302,   303,   304,   305,   306,   307,   308,   309,   310,   311,   312,   313,   314
   315,   316,   317,   318,   319,   320,   321,   322,   323,   324,   325,   326,   327,   328,   329,   330
   331,   332,   333,   334,   409,   410,   411,   412,   413,   414,   415,   416,   417,   418,   419,   420
   421,   422,   423,   424,   425,   426,   427,   428,   429,   430,   431,   432,   433,   434,   435,   436
   437,   438,   439,   440,   441,   442,   443,   444,   445,   446,   447,   448,   449,   450,   451,   452
   453,   454,   455,   456,   457,   458,   459,   460,   461,   462,   463,   464,   465,   466,   467,   468
   469,   470,   471,   472,   473,   474,   475,   476,   477,   478,   479,   480,   481,   482,   557,   558
   559,   560,   561,   562,   563,   564,   565,   566,   567,   568,   569,   570,   571,   572,   573,   574
   575,   576,   577,   578,   579,   580,   581,   582,   583,   584,   585,   586,   587,   588,   589,   590
   591,   592,   593,   594,   595,   596,   597,   598,   599,   600,   601,   602,   603,   604,   605,   606
** ... 388 like lines cut
*Elset, elset=ZSYM, instance=Part-1-1
   229,   230,   231,   232,   233,   234,   235,   236,   237,   238,   239,   240,   241,   242,   243,   244
   245,   246,   247,   248,   249,   250,   251,   252,   253,   254,   255,   256,   257,   258,   259,   260
   261,   262,   263,   264,   265,   266,   267,   268,   269,   270,   271,   272,   273,   274,   275,   276
   277,   278,   279,   280,   281,   282,   283,   284,   285,   514,   515,   516,   517,   518,   519,   520
   521,   522,   523,   524,   525,   526,   527,   528,   529,   530,   531,   532,   533,   534,   535,   536
   537,   538,   539,   540,   541,   542,   543,   544,   545,   546,   547,   548,   549,   550,   551,   552
   553,   554,   555,   556,   557,   558,   559,   560,   561,   562,   563,   564,   565,   566,   567,   568
   569,   570,   799,   800,   801,   802,   803,   804,   805,   806,   807,   808,   809,   810,   811,   812
   813,   814,   815,   816,   817,   818,   819,   820,   821,   822,   823,   824,   825,   826,   827,   828
   829,   830,   831,   832,   833,   834,   835,   836,   837,   838,   839,   840,   841,   842,   843,   844
   845,   846,   847,   848,   849,   850,   851,   852,   853,   854,   855,  1084,  1085,  1086,  1087,  1088
  1089,  1090,  1091,  1092,  1093,  1094,  1095,  1096,  1097,  1098,  1099,  1100,  1101,  1102,  1103,  1104
  1105,  1106,  1107,  1108,  1109,  1110,  1111,  1112,  1113,  1114,  1115,  1116,  1117,  1118,  1119,  1120
  1121,  1122,  1123,  1124,  1125,  1126,  1127,  1128,  1129,  1130,  1131,  1132,  1133,  1134,  1135,  1136
  1137,  1138,  1139,  1140,  1369,  1370,  1371,  1372,  1373,  1374,  1375,  1376,  1377,  1378,  1379,  1380
  1381,  1382,  1383,  1384,  1385,  1386,  1387,  1388,  1389,  1390,  1391,  1392,  1393,  1394,  1395,  1396
  1397,  1398,  1399,  1400,  1401,  1402,  1403,  1404,  1405,  1406,  1407,  1408,  1409,  1410,  1411,  1412
  1413,  1414,  1415,  1416,  1417,  1418,  1419,  1420,  1421,  1422,  1423,  1424,  1425,  1654,  1655,  1656
  1657,  1658,  1659,  1660,  1661,  1662,  1663,  1664,  1665,  1666,  1667,  1668,  1669,  1670,  1671,  1672
  1673,  1674,  1675,  1676,  1677,  1678,  1679,  1680,  1681,  1682,  1683,  1684,  1685,  1686,  1687,  1688
** ... 372 like lines cut
*Elset, elset=_Surf-1_S5, internal, instance=Part-1-1, generate
 24047,  24054,      1
*Surface, type=ELEMENT, name=Surf-1
_Surf-1_S5, S5
** Constraint: Constraint-1
*Coupling, constraint name=Constraint-1, ref node=RF_POINT, surface=Surf-1
*Kinematic
*End Assembly
** 
** ELEMENT CONTROLS
** 
*Section Controls, name=EC-1, ELEMENT DELETION=YES
1., 1., 1.
*Amplitude, name=Amp-1
             0.,              0.,              1.,              1.
*Amplitude, name=Amp-2
             0.,              1.,              1.,              1.
** 
** MATERIALS
** 
*Material, name=DAM_MAT
*Density
 0.001,
*Depvar, delete=28
     70,
*Inelastic Heat Fraction
          1.,
*USER MATERIAL,CONSTANTS=384,TYPE=MECHANICAL
** 2 ELASTICITY, 6 BW PLASTICITY PARAMETERS
** E,NU,ceta,eta0,cthetas,cthetat,cthetac,m
 190000,0.3,0.00,0.333,1.0,1.0,1.0,6.0
** 6 DUCTILE DAMAGE INITIATION LOCUS FUNCTION PARAMETERS, FRACTURE ENERGY DISSIPATION Gf [mJOULES/MM2],
** MAXIMUM VALUE FOR DUCTILE DAMAGE VARIABLE 
** Ddi1,Ddi2,Ddi3,Ddi4,Ddi5,Ddi6,Gf,Dcrit
0.02022,0.0,0.01179,2,100,0,3487.5,0.054
** 6 PARAMETERS FOR TEMPERATURE SOFTENING CORRECTION FUNCTION,
** 2 PARAMETERS FOR STRAIN RATE HARDENING CORRECTION FUNCTION (FIRST AND SECOND)
** cT1, cT2, cT3, eta2, Cp, T0, cE1, cE2
 1.82,0.01,0.90,0.9,490000000.0,253.15,0.023217,1.106919
** 1 PARAMETER FOR STRAIN RATE HARDENING CORRECTION FUNCTION (THIRD)
** NUMBER OF INCREMENTS TO UPDATE PLASTIC STRAIN RATE SDV,
** BRITTLE DAMAGE INITIATION STRESS VALUE
** CUT OFF VALUE
** 4 PARAMETERS FOR DUCTILE CRIT LOCUS
** cE3, strrInc, sigdmg, Cutoff, Ddf1, Ddf2, Ddf3, Ddf4
 0.0006,115000.0,1105.0,-0.33333,2.4976,4.1925E-06,0.8681,0
** 4 PARAMETERS FOR CLEAVAGE CRIT LOCUS
** Cc1, Cc2, Cc3, Cc4,ntempSwitch,nstrainSwitch,zero,zero 
100,0,100,0,0.0,0.0,0.0,0.0
** FLOW CURVE
756.9554456 ,     0     ,     892.1198364 ,     0.001 ,     915.5922728 ,     0.002 ,     931.7525771 ,     0.003
944.1974367 ,     0.004 ,     954.2624416 ,     0.005 ,     962.6413726 ,     0.006 ,     969.7592036 ,     0.007
975.9019373 ,     0.008 ,     981.2735678 ,     0.009 ,     986.025238  ,     0.01  ,     1003.731914 ,     0.015
1015.857614 ,     0.02  ,     1025.240064 ,     0.025 ,     1033.027097 ,     0.03  ,     1039.757611 ,     0.035
1045.722494 ,     0.04  ,     1051.098677 ,     0.045 ,     1056.004025 ,     0.05  ,     1060.52229  ,     0.055
1064.715742 ,     0.06  ,     1068.632216 ,     0.065 ,     1072.309385 ,     0.07  ,     1075.777509 ,     0.075
1079.061292 ,     0.08  ,     1082.181187 ,     0.085 ,     1085.154328 ,     0.09  ,     1087.995226 ,     0.095
1090.716277 ,     0.1   ,     1100.596011 ,     0.12  ,     1109.208248 ,     0.14  ,     1116.865894 ,     0.16
1123.77629  ,     0.18  ,     1130.084357 ,     0.2   ,     1135.895613 ,     0.22  ,     1141.289425 ,     0.24
1146.327083 ,     0.26  ,     1151.056966 ,     0.28  ,     1155.517968 ,     0.3   ,     1159.741859 ,     0.32
1163.754944 ,     0.34  ,     1167.579263 ,     0.36  ,     1171.233477 ,     0.38  ,     1174.733536 ,     0.4
1178.093184 ,     0.42  ,     1181.324353 ,     0.44  ,     1184.437477 ,     0.46  ,     1187.441727 ,     0.48
1190.345221 ,     0.5   ,     1193.155171 ,     0.52  ,     1195.878021 ,     0.54  ,     1198.519551 ,     0.56
1201.08497  ,     0.58  ,     1203.578983 ,     0.6   ,     1206.005862 ,     0.62  ,     1208.369496 ,     0.64
1210.673433 ,     0.66  ,     1212.920924 ,     0.68  ,     1215.114951 ,     0.7   ,     1217.258262 ,     0.72
1219.35339  ,     0.74  ,     1221.402678 ,     0.76  ,     1223.408295 ,     0.78  ,     1225.372258 ,     0.8
1227.296441 ,     0.82  ,     1229.182591 ,     0.84  ,     1231.032339 ,     0.86  ,     1232.847211 ,     0.88
1234.628635 ,     0.9   ,     1236.37795  ,     0.92  ,     1238.096414 ,     0.94  ,     1239.785211 ,     0.96
1241.445456 ,     0.98  ,     1243.078199 ,     1     ,     1244.684433 ,     1.02  ,     1246.265095 ,     1.04
1247.821073 ,     1.06  ,     1249.353207 ,     1.08  ,     1250.862293 ,     1.1   ,     1252.34909  ,     1.12
** ... 23 like lines cut
*USER MATERIAL, CONSTANTS=12, TYPE=THERMAL
**mu0L,CL0     ,muRL     ,NL    ,EB  ,T0 ,RGAS      ,VH
28.6E6,2.084E12,-19.576E6,5.1E20,60E6,300,8314.46262,2000
**DL   ,Avagadro,BETA, TimeScale
1.27E-2,6.023E23,6, 1650
** 
** PREDEFINED FIELDS
** 
** Name: Predefined Field-1   Type: Temperature
*Initial Conditions, type=TEMPERATURE
Set-17, 1.
** ----------------------------------------------------------------
** 
** STEP: Step-1
** 
*Step, name=Step-1, nlgeom=YES
*Dynamic Temperature-displacement, Explicit
, 1.
*Bulk Viscosity
0.06, 1.2
** 
** BOUNDARY CONDITIONS
** 
** Name: BC-5 Type: Temperature
*Boundary, amplitude=Amp-2
Set-18, 11, 11, 1.
** Name: DISP Type: Displacement/Rotation
*Boundary, amplitude=Amp-1
RF_POINT, 1, 1
RF_POINT, 2, 2, 0.6
RF_POINT, 3, 3
RF_POINT, 4, 4
RF_POINT, 5, 5
RF_POINT, 6, 6
** Name: XSYM Type: Symmetry/Antisymmetry/Encastre
*Boundary
XSYM, XSYMM
** Name: YSYM Type: Symmetry/Antisymmetry/Encastre
*Boundary
YSYM, YSYMM
** Name: ZSYM Type: Symmetry/Antisymmetry/Encastre
*Boundary
ZSYM, ZSYMM
** 
** OUTPUT REQUESTS
** 
*Restart, write, number interval=1, time marks=NO
** 
** FIELD OUTPUT: F-Output-1
** 
*Output, field, number interval=300
*Node Output
NT, RF, U
*Element Output, directions=YES
S, SDV, STATUS, TEMP
** 
** HISTORY OUTPUT: H-Output-3
** 
*Output, history
*Element Output, elset=CRIT_ELE
STATUS
** 
** HISTORY OUTPUT: H-Output-1
** 
*Node Output, nset=RF_POINT
RF2, U2
** 
** HISTORY OUTPUT: H-Output-2
** 
*Element Output, elset=STRESS_POINT
STATUS
*End Step