 Abaqus/Standard 2023.HF4                  DATE 30-Aug-2024 TIME 22:18:17
 SUMMARY OF JOB INFORMATION:
 STEP  INC ATT SEVERE EQUIL TOTAL  TOTAL      STEP       INC OF       DOF    IF
               DISCON ITERS ITERS  TIME/    TIME/LPF    TIME/LPF    MONITOR RIKS
               ITERS               FREQ
   1     1   1U    0     9     9  0.00       0.00       1000.     
   1     1   2U    0     4     4  0.00       0.00       250.0     
                          
 THE ANALYSIS HAS NOT BEEN COMPLETED
