1

   Abaqus 2023.HF4                                  Date 05-Sep-2024   Time 10:45:01
   For use by AALTO UNIVERSITY under license from Dassault Systemes or its subsidiary.

                                                                                 
                                                                                 
 STEP    1     INCREMENT     1     STEP TIME    0.00    


                        S T E P       1     C O U P L E D - T E M P E R A T U R E - D I S P L A C E M E N T   A N A L Y S I S


                                                                                          

          FIXED TIME INCREMENTS
          TIME INCREMENT IS                                    2.000E+04
          TIME PERIOD IS                                       1.000E+07

          CREEP AND SWELLING EFFECTS ARE OMITTED IN THIS STEP
          THE RATE DEPENDENCY WILL BE CONSIDERED IN THIS STEP

          CREEP AND SWELLING EFFECTS WILL BE IGNORED.

 CONVERGENCE TOLERANCE PARAMETERS FOR FORCE    
     CRITERION FOR RESIDUAL FORCE     FOR A NONLINEAR PROBLEM          5.000E-03
     CRITERION FOR DISP.    CORRECTION IN A NONLINEAR PROBLEM          1.000E-02
     INITIAL VALUE OF TIME AVERAGE FORCE                               1.000E-02
     AVERAGE FORCE     IS TIME AVERAGE FORCE    
     ALTERNATE CRIT. FOR RESIDUAL FORCE     FOR A NONLINEAR PROBLEM    2.000E-02
     CRITERION FOR ZERO FORCE     RELATIVE TO TIME AVRG. FORCE         1.000E-05
     CRITERION FOR RESIDUAL FORCE     WHEN THERE IS ZERO FLUX          1.000E-05
     CRITERION FOR DISP.    CORRECTION WHEN THERE IS ZERO FLUX         1.000E-03
     CRITERION FOR RESIDUAL FORCE     FOR A LINEAR INCREMENT           1.000E-08
     FIELD CONVERSION RATIO                                             1.00    
     CRITERION FOR ZERO FORCE     REL. TO TIME AVRG. MAX. FORCE        1.000E-05
     CRITERION FOR ZERO DISP.    RELATIVE TO CHARACTERISTIC LENGTH     1.000E-08

 CONVERGENCE TOLERANCE PARAMETERS FOR MOMENT   
     CRITERION FOR RESIDUAL MOMENT    FOR A NONLINEAR PROBLEM          5.000E-03
     CRITERION FOR ROTATION CORRECTION IN A NONLINEAR PROBLEM          1.000E-02
     INITIAL VALUE OF TIME AVERAGE MOMENT                              1.000E-02
     AVERAGE MOMENT    IS TIME AVERAGE MOMENT   
     ALTERNATE CRIT. FOR RESIDUAL MOMENT    FOR A NONLINEAR PROBLEM    2.000E-02
     CRITERION FOR ZERO MOMENT    RELATIVE TO TIME AVRG. MOMENT        1.000E-05
     CRITERION FOR RESIDUAL MOMENT    WHEN THERE IS ZERO FLUX          1.000E-05
     CRITERION FOR ROTATION CORRECTION WHEN THERE IS ZERO FLUX         1.000E-03
     CRITERION FOR RESIDUAL MOMENT    FOR A LINEAR INCREMENT           1.000E-08
     FIELD CONVERSION RATIO                                             1.00    
     CRITERION FOR ZERO MOMENT    REL. TO TIME AVRG. MAX. MOMENT       1.000E-05

 CONVERGENCE TOLERANCE PARAMETERS FOR HEAT FLUX
     CRITERION FOR RESIDUAL HEAT FLUX FOR A NONLINEAR PROBLEM          5.000E-03
     CRITERION FOR TEMP.    CORRECTION IN A NONLINEAR PROBLEM          1.000E-02
     INITIAL VALUE OF TIME AVERAGE HEAT FLUX                           1.000E-02
     AVERAGE HEAT FLUX IS TIME AVERAGE HEAT FLUX
     ALTERNATE CRIT. FOR RESIDUAL HEAT FLUX FOR A NONLINEAR PROBLEM    2.000E-02
     CRITERION FOR ZERO HEAT FLUX RELATIVE TO TIME AVRG. HEAT FLUX     1.000E-05
     CRITERION FOR RESIDUAL HEAT FLUX WHEN THERE IS ZERO FLUX          1.000E-05
     CRITERION FOR TEMP.    CORRECTION WHEN THERE IS ZERO FLUX         1.000E-03
     CRITERION FOR RESIDUAL HEAT FLUX FOR A LINEAR INCREMENT           1.000E-08
     FIELD CONVERSION RATIO                                             1.00    
     CRITERION FOR ZERO HEAT FLUX REL. TO TIME AVRG. MAX. HEAT FLUX    1.000E-05

     VOLUMETRIC STRAIN COMPATIBILITY TOLERANCE FOR HYBRID SOLIDS       1.000E-05
     AXIAL STRAIN COMPATIBILITY TOLERANCE FOR HYBRID BEAMS             1.000E-05
     TRANS. SHEAR STRAIN COMPATIBILITY TOLERANCE FOR HYBRID BEAMS      1.000E-05
     SOFT CONTACT CONSTRAINT COMPATIBILITY TOLERANCE FOR P>P0          5.000E-03
     SOFT CONTACT CONSTRAINT COMPATIBILITY TOLERANCE FOR P=0.0         0.100    
     CONTACT FORCE ERROR TOLERANCE FOR CONVERT SDI=YES                 1.00    
     DISPLACEMENT COMPATIBILITY TOLERANCE FOR DCOUP ELEMENTS           1.000E-05
     ROTATION COMPATIBILITY TOLERANCE FOR DCOUP ELEMENTS               1.000E-05

 EQUILIBRIUM WILL BE CHECKED FOR SEVERE DISCONTINUITY ITERATIONS

 ITERATION CONTROL PARAMETERS:
     FIRST EQUILIBRIUM ITERATION FOR CONSECUTIVE DIVERGENCE CHECK              4
     EQUILIBRIUM ITERATION AFTER WHICH ALTERNATE RESIDUAL IS USED              9
     MAXIMUM EQUILIBRIUM ITERATIONS ALLOWED                                   16
     MAXIMUM ITERATIONS FOR SEVERE DISCONTINUITIES                            12
     GLOBAL STABILIZATION CONTROL IS NOT USED

          PRINT OF INCREMENT NUMBER, TIME, ETC., EVERY    1  INCREMENTS

     THE MAXIMUM NUMBER OF INCREMENTS IN THIS STEP IS                 1000000

          LARGE DISPLACEMENT THEORY WILL BE USED

          UNSYMMETRIC MATRIX STORAGE AND SOLUTION WILL BE USED

     LINEAR EXTRAPOLATION WILL BE USED

     CHARACTERISTIC ELEMENT LENGTH     8.956E-03

     DETAILS REGARDING ACTUAL SOLUTION WAVEFRONT REQUESTED

     DETAILED OUTPUT OF DIAGNOSTICS TO DATABASE REQUESTED

     PRINT OF INCREMENT NUMBER, TIME, ETC., TO THE MESSAGE FILE EVERY     1  INCREMENTS

     ELEMENT OPERATIONS WILL BE CARRIED OUT IN PARALLEL USING   8 THREADS ON 1 DOMAIN

     PARALLEL CONTACT TRACKING ENABLED


     COLLECTING MODEL CONSTRAINT INFORMATION FOR OVERCONSTRAINT CHECKS

     COLLECTING STEP CONSTRAINT INFORMATION FOR OVERCONSTRAINT CHECKS


  INCREMENT     1 STARTS. ATTEMPT NUMBER  1, TIME INCREMENT  2.000E+04
 
     INITIAL ELEMENT LOAD BALANCE
            DOMAIN    1     THREAD    NUMBER OF ELEMENTS
                              1            5048
                              2            4800
                              3            5120
                              4            5080
                              5            5296
                              6            5216
                              7            5352
                              8            5424
 
	UNSYMMETRIC NEW DIRECT SPARSE SOLVER RUNNING ON
 	1 HOST x 1 MPI RANK PER HOST x 8 THREADS PER RANK
        NUMBER OF EQUATIONS:  131600
        NUMBER OF RHS:        1
        NUMBER OF FLOPS:      2.553e+11
        SOLVER ELAPSED TIME:  1.4s

               CONVERGENCE CHECKS FOR EQUILIBRIUM ITERATION     1


 AVERAGE FORCE                      8.343E-06   TIME AVG. FORCE        1.12    
                                                (FROM MOMENT    FIELD)
 LARGEST SCALED RESIDUAL FORCE      9.235E-16   AT NODE      26123   DOF  2
   INSTANCE: PLATE-1                                                                         
  CORRESPONDING RESIDUAL FORCE      9.235E-16
 LARGEST INCREMENT OF DISP.         2.130E-05   AT NODE        997   DOF  2
   INSTANCE: PLATE-1                                                                         
 LARGEST CORRECTION TO DISP.        2.130E-05   AT NODE        997   DOF  2
   INSTANCE: PLATE-1                                                                         
          THERE IS ZERO FORCE     EVERYWHERE

 AVERAGE MOMENT                      0.00       TIME AVG. MOMENT      1.000E-02
 ALL MOMENT    RESIDUALS ARE ZERO
 ALL ROTATION INCREMENTS ARE ZERO
 ALL CORRECTION TO ROTATION ARE ZERO
          THERE IS ZERO MOMENT    EVERYWHERE

 AVERAGE HEAT FLUX                  3.676E-19   TIME AVG. HEAT FLUX   1.000E-02
 LARGEST RESIDUAL HEAT FLUX        -4.155E-17   AT NODE       4419   DOF 11
   INSTANCE: PLATE-1                                                                         
 LARGEST INCREMENT OF TEMP.         8.966E-15   AT NODE        290   DOF 11
   INSTANCE: PLATE-1                                                                         
 LARGEST CORRECTION TO TEMP.        8.966E-15   AT NODE        290   DOF 11
   INSTANCE: PLATE-1                                                                         
          THERE IS ZERO HEAT FLUX EVERYWHERE
 

 ***WARNING: THERE IS ZERO HEAT FLUX EVERYWHERE IN THE MODEL BASED ON THE 
             DEFAULT CRITERION. PLEASE CHECK THE VALUE OF THE AVERAGE HEAT FLUX 
             DURING THE CURRENT ITERATION TO VERIFY THAT THE HEAT FLUX IS SMALL 
             ENOUGH TO BE TREATED AS ZERO. IF NOT, PLEASE USE THE SOLUTION 
             CONTROLS TO RESET THE CRITERION FOR ZERO HEAT FLUX.

 ITERATION SUMMARY FOR THE INCREMENT:   1 TOTAL ITERATIONS, OF WHICH
   0 ARE SEVERE DISCONTINUITY ITERATIONS AND  1 ARE EQUILIBRIUM ITERATIONS.

 TIME INCREMENT COMPLETED  2.000E+04,  FRACTION OF STEP COMPLETED  2.000E-03
 STEP TIME COMPLETED       2.000E+04,  TOTAL TIME COMPLETED        2.000E+04


  INCREMENT     2 STARTS. ATTEMPT NUMBER  1, TIME INCREMENT  2.000E+04
 
	UNSYMMETRIC NEW DIRECT SPARSE SOLVER RUNNING ON
 	1 HOST x 1 MPI RANK PER HOST x 8 THREADS PER RANK
        NUMBER OF EQUATIONS:  131600
        NUMBER OF RHS:        1
        NUMBER OF FLOPS:      2.553e+11
        SOLVER ELAPSED TIME:  1.4s

               CONVERGENCE CHECKS FOR EQUILIBRIUM ITERATION     1


 AVERAGE FORCE                      1.669E-05   TIME AVG. FORCE       1.669E-05
 LARGEST SCALED RESIDUAL FORCE      1.122E-16   AT NODE       1849   DOF  2
   INSTANCE: PLATE-1                                                                         
  CORRESPONDING RESIDUAL FORCE      1.122E-16
 LARGEST INCREMENT OF DISP.         2.130E-05   AT NODE        997   DOF  2
   INSTANCE: PLATE-1                                                                         
 LARGEST CORRECTION TO DISP.       -2.068E-15   AT NODE        998   DOF  3
   INSTANCE: PLATE-1                                                                         
          THE FORCE     EQUILIBRIUM RESPONSE WAS LINEAR IN THIS INCREMENT

 AVERAGE MOMENT                     7.362E-12   TIME AVG. MOMENT      1.000E-02
 LARGEST SCALED RESIDUAL MOMENT     1.255E-12   AT NODE        996   DOF  4
   INSTANCE: PLATE-1                                                                         
  CORRESPONDING RESIDUAL MOMENT     1.255E-12
 LARGEST INCREMENT OF ROTATION      1.555E-05   AT NODE        996   DOF  4
   INSTANCE: PLATE-1                                                                         
 LARGEST CORRECTION TO ROTATION     1.555E-05   AT NODE        996   DOF  4
   INSTANCE: PLATE-1                                                                         
          THERE IS ZERO MOMENT    EVERYWHERE
 

 ***WARNING: THERE IS ZERO MOMENT EVERYWHERE IN THE MODEL BASED ON THE DEFAULT 
             CRITERION. PLEASE CHECK THE VALUE OF THE AVERAGE MOMENT DURING THE 
             CURRENT ITERATION TO VERIFY THAT THE MOMENT IS SMALL ENOUGH TO BE 
             TREATED AS ZERO. IF NOT, PLEASE USE THE SOLUTION CONTROLS TO RESET 
             THE CRITERION FOR ZERO MOMENT.

 AVERAGE HEAT FLUX                  3.692E-08   TIME AVG. HEAT FLUX   1.000E-02
 LARGEST RESIDUAL HEAT FLUX         4.634E-17   AT NODE        917   DOF 11
   INSTANCE: PLATE-1                                                                         
 LARGEST INCREMENT OF TEMP.         7.601E-03   AT NODE        996   DOF 11
   INSTANCE: PLATE-1                                                                         
 LARGEST CORRECTION TO TEMP.        7.601E-03   AT NODE        996   DOF 11
   INSTANCE: PLATE-1                                                                         
          THERE IS ZERO HEAT FLUX EVERYWHERE
 

 ***WARNING: THERE IS ZERO HEAT FLUX EVERYWHERE IN THE MODEL BASED ON THE 
             DEFAULT CRITERION. PLEASE CHECK THE VALUE OF THE AVERAGE HEAT FLUX 
             DURING THE CURRENT ITERATION TO VERIFY THAT THE HEAT FLUX IS SMALL 
             ENOUGH TO BE TREATED AS ZERO. IF NOT, PLEASE USE THE SOLUTION 
             CONTROLS TO RESET THE CRITERION FOR ZERO HEAT FLUX.

 ITERATION SUMMARY FOR THE INCREMENT:   1 TOTAL ITERATIONS, OF WHICH
   0 ARE SEVERE DISCONTINUITY ITERATIONS AND  1 ARE EQUILIBRIUM ITERATIONS.

 TIME INCREMENT COMPLETED  2.000E+04,  FRACTION OF STEP COMPLETED  4.000E-03
 STEP TIME COMPLETED       4.000E+04,  TOTAL TIME COMPLETED        4.000E+04


  INCREMENT     3 STARTS. ATTEMPT NUMBER  1, TIME INCREMENT  2.000E+04
 
	UNSYMMETRIC NEW DIRECT SPARSE SOLVER RUNNING ON
 	1 HOST x 1 MPI RANK PER HOST x 8 THREADS PER RANK
        NUMBER OF EQUATIONS:  131600
        NUMBER OF RHS:        1
        NUMBER OF FLOPS:      2.553e+11
        SOLVER ELAPSED TIME:  1.5s

               CONVERGENCE CHECKS FOR EQUILIBRIUM ITERATION     1


 AVERAGE FORCE                      5.148E-05   TIME AVG. FORCE       3.408E-05
 LARGEST SCALED RESIDUAL FORCE      1.258E-16   AT NODE       1387   DOF  2
   INSTANCE: PLATE-1                                                                         
  CORRESPONDING RESIDUAL FORCE      1.258E-16
 LARGEST INCREMENT OF DISP.         2.130E-05   AT NODE        997   DOF  2
   INSTANCE: PLATE-1                                                                         
 LARGEST CORRECTION TO DISP.       -8.872E-11   AT NODE       2561   DOF  2
   INSTANCE: PLATE-1                                                                         
          THE FORCE     EQUILIBRIUM RESPONSE WAS LINEAR IN THIS INCREMENT

 AVERAGE MOMENT                     2.947E-11   TIME AVG. MOMENT      1.000E-02
 LARGEST SCALED RESIDUAL MOMENT     5.763E-14   AT NODE        996   DOF  4
   INSTANCE: PLATE-1                                                                         
  CORRESPONDING RESIDUAL MOMENT     5.763E-14
 LARGEST INCREMENT OF ROTATION      4.669E-05   AT NODE        996   DOF  4
   INSTANCE: PLATE-1                                                                         
 LARGEST CORRECTION TO ROTATION     3.114E-05   AT NODE        996   DOF  4
   INSTANCE: PLATE-1                                                                         
          THERE IS ZERO MOMENT    EVERYWHERE
 

 ***WARNING: THERE IS ZERO MOMENT EVERYWHERE IN THE MODEL BASED ON THE DEFAULT 
             CRITERION. PLEASE CHECK THE VALUE OF THE AVERAGE MOMENT DURING THE 
             CURRENT ITERATION TO VERIFY THAT THE MOMENT IS SMALL ENOUGH TO BE 
             TREATED AS ZERO. IF NOT, PLEASE USE THE SOLUTION CONTROLS TO RESET 
             THE CRITERION FOR ZERO MOMENT.

 AVERAGE HEAT FLUX                  7.387E-08   TIME AVG. HEAT FLUX   1.000E-02
 LARGEST RESIDUAL HEAT FLUX        -5.553E-17   AT NODE       1348   DOF 11
   INSTANCE: PLATE-1                                                                         
 LARGEST INCREMENT OF TEMP.         7.689E-03   AT NODE        996   DOF 11
   INSTANCE: PLATE-1                                                                         
 LARGEST CORRECTION TO TEMP.        8.827E-05   AT NODE        996   DOF 11
   INSTANCE: PLATE-1                                                                         
          THERE IS ZERO HEAT FLUX EVERYWHERE
 

 ***WARNING: THERE IS ZERO HEAT FLUX EVERYWHERE IN THE MODEL BASED ON THE 
             DEFAULT CRITERION. PLEASE CHECK THE VALUE OF THE AVERAGE HEAT FLUX 
             DURING THE CURRENT ITERATION TO VERIFY THAT THE HEAT FLUX IS SMALL 
             ENOUGH TO BE TREATED AS ZERO. IF NOT, PLEASE USE THE SOLUTION 
             CONTROLS TO RESET THE CRITERION FOR ZERO HEAT FLUX.

 ITERATION SUMMARY FOR THE INCREMENT:   1 TOTAL ITERATIONS, OF WHICH
   0 ARE SEVERE DISCONTINUITY ITERATIONS AND  1 ARE EQUILIBRIUM ITERATIONS.

 TIME INCREMENT COMPLETED  2.000E+04,  FRACTION OF STEP COMPLETED  6.000E-03
 STEP TIME COMPLETED       6.000E+04,  TOTAL TIME COMPLETED        6.000E+04


  INCREMENT     4 STARTS. ATTEMPT NUMBER  1, TIME INCREMENT  2.000E+04
 
	UNSYMMETRIC NEW DIRECT SPARSE SOLVER RUNNING ON
 	1 HOST x 1 MPI RANK PER HOST x 8 THREADS PER RANK
        NUMBER OF EQUATIONS:  131600
        NUMBER OF RHS:        1
        NUMBER OF FLOPS:      2.553e+11
        SOLVER ELAPSED TIME:  1.5s

               CONVERGENCE CHECKS FOR EQUILIBRIUM ITERATION     1


 AVERAGE FORCE                      6.848E-05   TIME AVG. FORCE       4.555E-05
 LARGEST SCALED RESIDUAL FORCE      1.511E-16   AT NODE       1351   DOF  2
   INSTANCE: PLATE-1                                                                         
  CORRESPONDING RESIDUAL FORCE      1.511E-16
 LARGEST INCREMENT OF DISP.         2.130E-05   AT NODE        997   DOF  2
   INSTANCE: PLATE-1                                                                         
 LARGEST CORRECTION TO DISP.       -2.962E-10   AT NODE       3316   DOF  2
   INSTANCE: PLATE-1                                                                         
          THE FORCE     EQUILIBRIUM RESPONSE WAS LINEAR IN THIS INCREMENT

 AVERAGE MOMENT                     6.631E-11   TIME AVG. MOMENT      1.000E-02
 LARGEST SCALED RESIDUAL MOMENT     1.280E-13   AT NODE        996   DOF  4
   INSTANCE: PLATE-1                                                                         
  CORRESPONDING RESIDUAL MOMENT     1.280E-13
 LARGEST INCREMENT OF ROTATION      7.784E-05   AT NODE        996   DOF  4
   INSTANCE: PLATE-1                                                                         
 LARGEST CORRECTION TO ROTATION     3.115E-05   AT NODE        996   DOF  4
   INSTANCE: PLATE-1                                                                         
          THERE IS ZERO MOMENT    EVERYWHERE
 

 ***WARNING: THERE IS ZERO MOMENT EVERYWHERE IN THE MODEL BASED ON THE DEFAULT 
             CRITERION. PLEASE CHECK THE VALUE OF THE AVERAGE MOMENT DURING THE 
             CURRENT ITERATION TO VERIFY THAT THE MOMENT IS SMALL ENOUGH TO BE 
             TREATED AS ZERO. IF NOT, PLEASE USE THE SOLUTION CONTROLS TO RESET 
             THE CRITERION FOR ZERO MOMENT.

 AVERAGE HEAT FLUX                  1.108E-07   TIME AVG. HEAT FLUX   1.108E-07
 LARGEST RESIDUAL HEAT FLUX        -4.337E-17   AT NODE       1343   DOF 11
   INSTANCE: PLATE-1                                                                         
 LARGEST INCREMENT OF TEMP.         7.778E-03   AT NODE        996   DOF 11
   INSTANCE: PLATE-1                                                                         
 LARGEST CORRECTION TO TEMP.        8.839E-05   AT NODE        996   DOF 11
   INSTANCE: PLATE-1                                                                         
          THE HEAT FLUX EQUILIBRIUM RESPONSE WAS LINEAR IN THIS INCREMENT

 ITERATION SUMMARY FOR THE INCREMENT:   1 TOTAL ITERATIONS, OF WHICH
   0 ARE SEVERE DISCONTINUITY ITERATIONS AND  1 ARE EQUILIBRIUM ITERATIONS.

 TIME INCREMENT COMPLETED  2.000E+04,  FRACTION OF STEP COMPLETED  8.000E-03
 STEP TIME COMPLETED       8.000E+04,  TOTAL TIME COMPLETED        8.000E+04


  INCREMENT     5 STARTS. ATTEMPT NUMBER  1, TIME INCREMENT  2.000E+04
 
	UNSYMMETRIC NEW DIRECT SPARSE SOLVER RUNNING ON
 	1 HOST x 1 MPI RANK PER HOST x 8 THREADS PER RANK
        NUMBER OF EQUATIONS:  131600
        NUMBER OF RHS:        1
        NUMBER OF FLOPS:      2.553e+11
        SOLVER ELAPSED TIME:  1.5s

               CONVERGENCE CHECKS FOR EQUILIBRIUM ITERATION     1


 AVERAGE FORCE                      8.548E-05   TIME AVG. FORCE       5.553E-05
 LARGEST SCALED RESIDUAL FORCE      1.278E-16   AT NODE        913   DOF  2
   INSTANCE: PLATE-1                                                                         
  CORRESPONDING RESIDUAL FORCE      1.278E-16
 LARGEST INCREMENT OF DISP.         2.130E-05   AT NODE        997   DOF  2
   INSTANCE: PLATE-1                                                                         
 LARGEST CORRECTION TO DISP.       -4.743E-10   AT NODE       3316   DOF  2
   INSTANCE: PLATE-1                                                                         
          THE FORCE     EQUILIBRIUM RESPONSE WAS LINEAR IN THIS INCREMENT

 AVERAGE MOMENT                     1.179E-10   TIME AVG. MOMENT      1.000E-02
 LARGEST SCALED RESIDUAL MOMENT     2.251E-13   AT NODE        996   DOF  4
   INSTANCE: PLATE-1                                                                         
  CORRESPONDING RESIDUAL MOMENT     2.251E-13
 LARGEST INCREMENT OF ROTATION      1.090E-04   AT NODE        996   DOF  4
   INSTANCE: PLATE-1                                                                         
 LARGEST CORRECTION TO ROTATION     3.119E-05   AT NODE        996   DOF  4
   INSTANCE: PLATE-1                                                                         
          THERE IS ZERO MOMENT    EVERYWHERE
 

 ***WARNING: THERE IS ZERO MOMENT EVERYWHERE IN THE MODEL BASED ON THE DEFAULT 
             CRITERION. PLEASE CHECK THE VALUE OF THE AVERAGE MOMENT DURING THE 
             CURRENT ITERATION TO VERIFY THAT THE MOMENT IS SMALL ENOUGH TO BE 
             TREATED AS ZERO. IF NOT, PLEASE USE THE SOLUTION CONTROLS TO RESET 
             THE CRITERION FOR ZERO MOMENT.

 AVERAGE HEAT FLUX                  1.481E-07   TIME AVG. HEAT FLUX   1.295E-07
 LARGEST RESIDUAL HEAT FLUX        -6.333E-17   AT NODE        502   DOF 11
   INSTANCE: PLATE-1                                                                         
 LARGEST INCREMENT OF TEMP.         7.867E-03   AT NODE        996   DOF 11
   INSTANCE: PLATE-1                                                                         
 LARGEST CORRECTION TO TEMP.        8.878E-05   AT NODE        996   DOF 11
   INSTANCE: PLATE-1                                                                         
          THE HEAT FLUX EQUILIBRIUM RESPONSE WAS LINEAR IN THIS INCREMENT

 ITERATION SUMMARY FOR THE INCREMENT:   1 TOTAL ITERATIONS, OF WHICH
   0 ARE SEVERE DISCONTINUITY ITERATIONS AND  1 ARE EQUILIBRIUM ITERATIONS.

 TIME INCREMENT COMPLETED  2.000E+04,  FRACTION OF STEP COMPLETED  1.000E-02
 STEP TIME COMPLETED       1.000E+05,  TOTAL TIME COMPLETED        1.000E+05


  INCREMENT     6 STARTS. ATTEMPT NUMBER  1, TIME INCREMENT  2.000E+04
 
	UNSYMMETRIC NEW DIRECT SPARSE SOLVER RUNNING ON
 	1 HOST x 1 MPI RANK PER HOST x 8 THREADS PER RANK
        NUMBER OF EQUATIONS:  131600
        NUMBER OF RHS:        1
        NUMBER OF FLOPS:      2.553e+11
        SOLVER ELAPSED TIME:  1.5s

               CONVERGENCE CHECKS FOR EQUILIBRIUM ITERATION     1


 AVERAGE FORCE                      1.025E-04   TIME AVG. FORCE       6.492E-05
 LARGEST SCALED RESIDUAL FORCE      1.265E-16   AT NODE        888   DOF  2
   INSTANCE: PLATE-1                                                                         
  CORRESPONDING RESIDUAL FORCE      1.265E-16
 LARGEST INCREMENT OF DISP.         2.130E-05   AT NODE        997   DOF  2
   INSTANCE: PLATE-1                                                                         
 LARGEST CORRECTION TO DISP.       -6.530E-10   AT NODE       3316   DOF  2
   INSTANCE: PLATE-1                                                                         
          THE FORCE     EQUILIBRIUM RESPONSE WAS LINEAR IN THIS INCREMENT

 AVERAGE MOMENT                     1.843E-10   TIME AVG. MOMENT      1.000E-02
 LARGEST SCALED RESIDUAL MOMENT     3.475E-13   AT NODE        996   DOF  4
   INSTANCE: PLATE-1                                                                         
  CORRESPONDING RESIDUAL MOMENT     3.475E-13
 LARGEST INCREMENT OF ROTATION      1.403E-04   AT NODE        996   DOF  4
   INSTANCE: PLATE-1                                                                         
 LARGEST CORRECTION TO ROTATION     3.122E-05   AT NODE        996   DOF  4
   INSTANCE: PLATE-1                                                                         
          THERE IS ZERO MOMENT    EVERYWHERE
 

 ***WARNING: THERE IS ZERO MOMENT EVERYWHERE IN THE MODEL BASED ON THE DEFAULT 
             CRITERION. PLEASE CHECK THE VALUE OF THE AVERAGE MOMENT DURING THE 
             CURRENT ITERATION TO VERIFY THAT THE MOMENT IS SMALL ENOUGH TO BE 
             TREATED AS ZERO. IF NOT, PLEASE USE THE SOLUTION CONTROLS TO RESET 
             THE CRITERION FOR ZERO MOMENT.

 AVERAGE HEAT FLUX                  1.852E-07   TIME AVG. HEAT FLUX   1.480E-07
 LARGEST RESIDUAL HEAT FLUX         4.618E-17   AT NODE      24125   DOF 11
   INSTANCE: PLATE-1                                                                         
 LARGEST INCREMENT OF TEMP.         7.956E-03   AT NODE        996   DOF 11
   INSTANCE: PLATE-1                                                                         
 LARGEST CORRECTION TO TEMP.        8.907E-05   AT NODE        996   DOF 11
   INSTANCE: PLATE-1                                                                         
          THE HEAT FLUX EQUILIBRIUM RESPONSE WAS LINEAR IN THIS INCREMENT

 ITERATION SUMMARY FOR THE INCREMENT:   1 TOTAL ITERATIONS, OF WHICH
   0 ARE SEVERE DISCONTINUITY ITERATIONS AND  1 ARE EQUILIBRIUM ITERATIONS.

 TIME INCREMENT COMPLETED  2.000E+04,  FRACTION OF STEP COMPLETED  1.200E-02
 STEP TIME COMPLETED       1.200E+05,  TOTAL TIME COMPLETED        1.200E+05


  INCREMENT     7 STARTS. ATTEMPT NUMBER  1, TIME INCREMENT  2.000E+04
 
	UNSYMMETRIC NEW DIRECT SPARSE SOLVER RUNNING ON
 	1 HOST x 1 MPI RANK PER HOST x 8 THREADS PER RANK
        NUMBER OF EQUATIONS:  131600
        NUMBER OF RHS:        1
        NUMBER OF FLOPS:      2.553e+11
        SOLVER ELAPSED TIME:  2.0s

               CONVERGENCE CHECKS FOR EQUILIBRIUM ITERATION     1


 AVERAGE FORCE                      1.195E-04   TIME AVG. FORCE       7.401E-05
 LARGEST SCALED RESIDUAL FORCE     -1.118E-16   AT NODE       1851   DOF  2
   INSTANCE: PLATE-1                                                                         
  CORRESPONDING RESIDUAL FORCE     -1.118E-16
 LARGEST INCREMENT OF DISP.         2.130E-05   AT NODE        997   DOF  2
   INSTANCE: PLATE-1                                                                         
 LARGEST CORRECTION TO DISP.       -8.322E-10   AT NODE       3316   DOF  2
   INSTANCE: PLATE-1                                                                         
          THE FORCE     EQUILIBRIUM RESPONSE WAS LINEAR IN THIS INCREMENT

 AVERAGE MOMENT                     2.655E-10   TIME AVG. MOMENT      1.000E-02
 LARGEST SCALED RESIDUAL MOMENT     4.944E-13   AT NODE        996   DOF  4
   INSTANCE: PLATE-1                                                                         
  CORRESPONDING RESIDUAL MOMENT     4.944E-13
 LARGEST INCREMENT OF ROTATION      1.715E-04   AT NODE        996   DOF  4
   INSTANCE: PLATE-1                                                                         
 LARGEST CORRECTION TO ROTATION     3.126E-05   AT NODE        996   DOF  4
   INSTANCE: PLATE-1                                                                         
          THERE IS ZERO MOMENT    EVERYWHERE
 

 ***WARNING: THERE IS ZERO MOMENT EVERYWHERE IN THE MODEL BASED ON THE DEFAULT 
             CRITERION. PLEASE CHECK THE VALUE OF THE AVERAGE MOMENT DURING THE 
             CURRENT ITERATION TO VERIFY THAT THE MOMENT IS SMALL ENOUGH TO BE 
             TREATED AS ZERO. IF NOT, PLEASE USE THE SOLUTION CONTROLS TO RESET 
             THE CRITERION FOR ZERO MOMENT.

 AVERAGE HEAT FLUX                  2.223E-07   TIME AVG. HEAT FLUX   1.666E-07
 LARGEST RESIDUAL HEAT FLUX        -6.050E-17   AT NODE       1843   DOF 11
   INSTANCE: PLATE-1                                                                         
 LARGEST INCREMENT OF TEMP.         8.045E-03   AT NODE        996   DOF 11
   INSTANCE: PLATE-1                                                                         
 LARGEST CORRECTION TO TEMP.        8.933E-05   AT NODE        996   DOF 11
   INSTANCE: PLATE-1                                                                         
          THE HEAT FLUX EQUILIBRIUM RESPONSE WAS LINEAR IN THIS INCREMENT

 ITERATION SUMMARY FOR THE INCREMENT:   1 TOTAL ITERATIONS, OF WHICH
   0 ARE SEVERE DISCONTINUITY ITERATIONS AND  1 ARE EQUILIBRIUM ITERATIONS.

 TIME INCREMENT COMPLETED  2.000E+04,  FRACTION OF STEP COMPLETED  1.400E-02
 STEP TIME COMPLETED       1.400E+05,  TOTAL TIME COMPLETED        1.400E+05


  INCREMENT     8 STARTS. ATTEMPT NUMBER  1, TIME INCREMENT  2.000E+04
 
	UNSYMMETRIC NEW DIRECT SPARSE SOLVER RUNNING ON
 	1 HOST x 1 MPI RANK PER HOST x 8 THREADS PER RANK
        NUMBER OF EQUATIONS:  131600
        NUMBER OF RHS:        1
        NUMBER OF FLOPS:      2.553e+11
        SOLVER ELAPSED TIME:  1.6s

               CONVERGENCE CHECKS FOR EQUILIBRIUM ITERATION     1


 AVERAGE FORCE                      1.365E-04   TIME AVG. FORCE       8.294E-05
 LARGEST SCALED RESIDUAL FORCE      1.707E-16   AT NODE        849   DOF  2
   INSTANCE: PLATE-1                                                                         
  CORRESPONDING RESIDUAL FORCE      1.707E-16
 LARGEST INCREMENT OF DISP.         2.130E-05   AT NODE        997   DOF  2
   INSTANCE: PLATE-1                                                                         
 LARGEST CORRECTION TO DISP.       -1.012E-09   AT NODE       3316   DOF  2
   INSTANCE: PLATE-1                                                                         
          THE FORCE     EQUILIBRIUM RESPONSE WAS LINEAR IN THIS INCREMENT

 AVERAGE MOMENT                     3.615E-10   TIME AVG. MOMENT      1.000E-02
 LARGEST SCALED RESIDUAL MOMENT     6.644E-13   AT NODE        996   DOF  4
   INSTANCE: PLATE-1                                                                         
  CORRESPONDING RESIDUAL MOMENT     6.644E-13
 LARGEST INCREMENT OF ROTATION      2.028E-04   AT NODE        996   DOF  4
   INSTANCE: PLATE-1                                                                         
 LARGEST CORRECTION TO ROTATION     3.130E-05   AT NODE       7067   DOF  4
   INSTANCE: PLATE-1                                                                         
          THERE IS ZERO MOMENT    EVERYWHERE
 

 ***WARNING: THERE IS ZERO MOMENT EVERYWHERE IN THE MODEL BASED ON THE DEFAULT 
             CRITERION. PLEASE CHECK THE VALUE OF THE AVERAGE MOMENT DURING THE 
             CURRENT ITERATION TO VERIFY THAT THE MOMENT IS SMALL ENOUGH TO BE 
             TREATED AS ZERO. IF NOT, PLEASE USE THE SOLUTION CONTROLS TO RESET 
             THE CRITERION FOR ZERO MOMENT.

 AVERAGE HEAT FLUX                  2.593E-07   TIME AVG. HEAT FLUX   1.851E-07
 LARGEST RESIDUAL HEAT FLUX        -5.436E-17   AT NODE       1346   DOF 11
   INSTANCE: PLATE-1                                                                         
 LARGEST INCREMENT OF TEMP.         8.135E-03   AT NODE        996   DOF 11
   INSTANCE: PLATE-1                                                                         
 LARGEST CORRECTION TO TEMP.        8.956E-05   AT NODE        996   DOF 11
   INSTANCE: PLATE-1                                                                         
          THE HEAT FLUX EQUILIBRIUM RESPONSE WAS LINEAR IN THIS INCREMENT

 ITERATION SUMMARY FOR THE INCREMENT:   1 TOTAL ITERATIONS, OF WHICH
   0 ARE SEVERE DISCONTINUITY ITERATIONS AND  1 ARE EQUILIBRIUM ITERATIONS.

 TIME INCREMENT COMPLETED  2.000E+04,  FRACTION OF STEP COMPLETED  1.600E-02
 STEP TIME COMPLETED       1.600E+05,  TOTAL TIME COMPLETED        1.600E+05


  INCREMENT     9 STARTS. ATTEMPT NUMBER  1, TIME INCREMENT  2.000E+04
 
	UNSYMMETRIC NEW DIRECT SPARSE SOLVER RUNNING ON
 	1 HOST x 1 MPI RANK PER HOST x 8 THREADS PER RANK
        NUMBER OF EQUATIONS:  131600
        NUMBER OF RHS:        1
        NUMBER OF FLOPS:      2.553e+11
        SOLVER ELAPSED TIME:  1.4s

               CONVERGENCE CHECKS FOR EQUILIBRIUM ITERATION     1


 AVERAGE FORCE                      1.535E-04   TIME AVG. FORCE       9.175E-05
 LARGEST SCALED RESIDUAL FORCE     -1.204E-16   AT NODE        887   DOF  2
   INSTANCE: PLATE-1                                                                         
  CORRESPONDING RESIDUAL FORCE     -1.204E-16
 LARGEST INCREMENT OF DISP.         2.130E-05   AT NODE        997   DOF  2
   INSTANCE: PLATE-1                                                                         
 LARGEST CORRECTION TO DISP.       -1.192E-09   AT NODE       3316   DOF  2
   INSTANCE: PLATE-1                                                                         
          THE FORCE     EQUILIBRIUM RESPONSE WAS LINEAR IN THIS INCREMENT

 AVERAGE MOMENT                     4.723E-10   TIME AVG. MOMENT      1.000E-02
 LARGEST SCALED RESIDUAL MOMENT     8.566E-13   AT NODE        996   DOF  4
   INSTANCE: PLATE-1                                                                         
  CORRESPONDING RESIDUAL MOMENT     8.566E-13
 LARGEST INCREMENT OF ROTATION      2.341E-04   AT NODE        996   DOF  4
   INSTANCE: PLATE-1                                                                         
 LARGEST CORRECTION TO ROTATION     3.134E-05   AT NODE       7067   DOF  4
   INSTANCE: PLATE-1                                                                         
          THERE IS ZERO MOMENT    EVERYWHERE
 

 ***WARNING: THERE IS ZERO MOMENT EVERYWHERE IN THE MODEL BASED ON THE DEFAULT 
             CRITERION. PLEASE CHECK THE VALUE OF THE AVERAGE MOMENT DURING THE 
             CURRENT ITERATION TO VERIFY THAT THE MOMENT IS SMALL ENOUGH TO BE 
             TREATED AS ZERO. IF NOT, PLEASE USE THE SOLUTION CONTROLS TO RESET 
             THE CRITERION FOR ZERO MOMENT.

 AVERAGE HEAT FLUX                  2.964E-07   TIME AVG. HEAT FLUX   2.037E-07
 LARGEST RESIDUAL HEAT FLUX         4.520E-17   AT NODE        850   DOF 11
   INSTANCE: PLATE-1                                                                         
 LARGEST INCREMENT OF TEMP.         8.224E-03   AT NODE        996   DOF 11
   INSTANCE: PLATE-1                                                                         
 LARGEST CORRECTION TO TEMP.        8.976E-05   AT NODE        996   DOF 11
   INSTANCE: PLATE-1                                                                         
          THE HEAT FLUX EQUILIBRIUM RESPONSE WAS LINEAR IN THIS INCREMENT

 ITERATION SUMMARY FOR THE INCREMENT:   1 TOTAL ITERATIONS, OF WHICH
   0 ARE SEVERE DISCONTINUITY ITERATIONS AND  1 ARE EQUILIBRIUM ITERATIONS.

 TIME INCREMENT COMPLETED  2.000E+04,  FRACTION OF STEP COMPLETED  1.800E-02
 STEP TIME COMPLETED       1.800E+05,  TOTAL TIME COMPLETED        1.800E+05


  INCREMENT    10 STARTS. ATTEMPT NUMBER  1, TIME INCREMENT  2.000E+04
 
	UNSYMMETRIC NEW DIRECT SPARSE SOLVER RUNNING ON
 	1 HOST x 1 MPI RANK PER HOST x 8 THREADS PER RANK
        NUMBER OF EQUATIONS:  131600
        NUMBER OF RHS:        1
        NUMBER OF FLOPS:      2.553e+11
        SOLVER ELAPSED TIME:  1.4s

               CONVERGENCE CHECKS FOR EQUILIBRIUM ITERATION     1


 AVERAGE FORCE                      1.704E-04   TIME AVG. FORCE       1.005E-04
 LARGEST SCALED RESIDUAL FORCE     -1.744E-16   AT NODE       1856   DOF  2
   INSTANCE: PLATE-1                                                                         
  CORRESPONDING RESIDUAL FORCE     -1.744E-16
 LARGEST INCREMENT OF DISP.         2.130E-05   AT NODE        997   DOF  2
   INSTANCE: PLATE-1                                                                         
 LARGEST CORRECTION TO DISP.       -1.373E-09   AT NODE       3316   DOF  2
   INSTANCE: PLATE-1                                                                         
          THE FORCE     EQUILIBRIUM RESPONSE WAS LINEAR IN THIS INCREMENT

 AVERAGE MOMENT                     5.979E-10   TIME AVG. MOMENT      1.000E-02
 LARGEST SCALED RESIDUAL MOMENT     1.070E-12   AT NODE        996   DOF  4
   INSTANCE: PLATE-1                                                                         
  CORRESPONDING RESIDUAL MOMENT     1.070E-12
 LARGEST INCREMENT OF ROTATION      2.655E-04   AT NODE        996   DOF  4
   INSTANCE: PLATE-1                                                                         
 LARGEST CORRECTION TO ROTATION     3.138E-05   AT NODE       7067   DOF  4
   INSTANCE: PLATE-1                                                                         
          THERE IS ZERO MOMENT    EVERYWHERE
 

 ***WARNING: THERE IS ZERO MOMENT EVERYWHERE IN THE MODEL BASED ON THE DEFAULT 
             CRITERION. PLEASE CHECK THE VALUE OF THE AVERAGE MOMENT DURING THE 
             CURRENT ITERATION TO VERIFY THAT THE MOMENT IS SMALL ENOUGH TO BE 
             TREATED AS ZERO. IF NOT, PLEASE USE THE SOLUTION CONTROLS TO RESET 
             THE CRITERION FOR ZERO MOMENT.

 AVERAGE HEAT FLUX                  3.336E-07   TIME AVG. HEAT FLUX   2.223E-07
 LARGEST RESIDUAL HEAT FLUX        -4.724E-17   AT NODE      20195   DOF 11
   INSTANCE: PLATE-1                                                                         
 LARGEST INCREMENT OF TEMP.         8.314E-03   AT NODE        996   DOF 11
   INSTANCE: PLATE-1                                                                         
 LARGEST CORRECTION TO TEMP.        8.993E-05   AT NODE        996   DOF 11
   INSTANCE: PLATE-1                                                                         
          THE HEAT FLUX EQUILIBRIUM RESPONSE WAS LINEAR IN THIS INCREMENT

 ITERATION SUMMARY FOR THE INCREMENT:   1 TOTAL ITERATIONS, OF WHICH
   0 ARE SEVERE DISCONTINUITY ITERATIONS AND  1 ARE EQUILIBRIUM ITERATIONS.

 TIME INCREMENT COMPLETED  2.000E+04,  FRACTION OF STEP COMPLETED  2.000E-02
 STEP TIME COMPLETED       2.000E+05,  TOTAL TIME COMPLETED        2.000E+05


  INCREMENT    11 STARTS. ATTEMPT NUMBER  1, TIME INCREMENT  2.000E+04
 
	UNSYMMETRIC NEW DIRECT SPARSE SOLVER RUNNING ON
 	1 HOST x 1 MPI RANK PER HOST x 8 THREADS PER RANK
        NUMBER OF EQUATIONS:  131600
        NUMBER OF RHS:        1
        NUMBER OF FLOPS:      2.553e+11
        SOLVER ELAPSED TIME:  1.4s

               CONVERGENCE CHECKS FOR EQUILIBRIUM ITERATION     1


 AVERAGE FORCE                      1.874E-04   TIME AVG. FORCE       1.092E-04
 LARGEST SCALED RESIDUAL FORCE     -1.697E-16   AT NODE       1346   DOF  2
   INSTANCE: PLATE-1                                                                         
  CORRESPONDING RESIDUAL FORCE     -1.697E-16
 LARGEST INCREMENT OF DISP.         2.130E-05   AT NODE        997   DOF  2
   INSTANCE: PLATE-1                                                                         
 LARGEST CORRECTION TO DISP.       -1.555E-09   AT NODE       3316   DOF  2
   INSTANCE: PLATE-1                                                                         
          THE FORCE     EQUILIBRIUM RESPONSE WAS LINEAR IN THIS INCREMENT

 AVERAGE MOMENT                     7.384E-10   TIME AVG. MOMENT      1.000E-02
 LARGEST SCALED RESIDUAL MOMENT     1.303E-12   AT NODE        996   DOF  4
   INSTANCE: PLATE-1                                                                         
  CORRESPONDING RESIDUAL MOMENT     1.303E-12
 LARGEST INCREMENT OF ROTATION      2.969E-04   AT NODE        996   DOF  4
   INSTANCE: PLATE-1                                                                         
 LARGEST CORRECTION TO ROTATION     3.143E-05   AT NODE       7067   DOF  4
   INSTANCE: PLATE-1                                                                         
          THERE IS ZERO MOMENT    EVERYWHERE
 

 ***WARNING: THERE IS ZERO MOMENT EVERYWHERE IN THE MODEL BASED ON THE DEFAULT 
             CRITERION. PLEASE CHECK THE VALUE OF THE AVERAGE MOMENT DURING THE 
             CURRENT ITERATION TO VERIFY THAT THE MOMENT IS SMALL ENOUGH TO BE 
             TREATED AS ZERO. IF NOT, PLEASE USE THE SOLUTION CONTROLS TO RESET 
             THE CRITERION FOR ZERO MOMENT.

 AVERAGE HEAT FLUX                  3.708E-07   TIME AVG. HEAT FLUX   2.408E-07
 LARGEST RESIDUAL HEAT FLUX         4.027E-17   AT NODE       1878   DOF 11
   INSTANCE: PLATE-1                                                                         
 LARGEST INCREMENT OF TEMP.         8.404E-03   AT NODE        996   DOF 11
   INSTANCE: PLATE-1                                                                         
 LARGEST CORRECTION TO TEMP.        9.007E-05   AT NODE        996   DOF 11
   INSTANCE: PLATE-1                                                                         
          THE HEAT FLUX EQUILIBRIUM RESPONSE WAS LINEAR IN THIS INCREMENT

 ITERATION SUMMARY FOR THE INCREMENT:   1 TOTAL ITERATIONS, OF WHICH
   0 ARE SEVERE DISCONTINUITY ITERATIONS AND  1 ARE EQUILIBRIUM ITERATIONS.

 TIME INCREMENT COMPLETED  2.000E+04,  FRACTION OF STEP COMPLETED  2.200E-02
 STEP TIME COMPLETED       2.200E+05,  TOTAL TIME COMPLETED        2.200E+05


  INCREMENT    12 STARTS. ATTEMPT NUMBER  1, TIME INCREMENT  2.000E+04
 
	UNSYMMETRIC NEW DIRECT SPARSE SOLVER RUNNING ON
 	1 HOST x 1 MPI RANK PER HOST x 8 THREADS PER RANK
        NUMBER OF EQUATIONS:  131600
        NUMBER OF RHS:        1
        NUMBER OF FLOPS:      2.553e+11
        SOLVER ELAPSED TIME:  1.4s

               CONVERGENCE CHECKS FOR EQUILIBRIUM ITERATION     1


 AVERAGE FORCE                      2.044E-04   TIME AVG. FORCE       1.178E-04
 LARGEST SCALED RESIDUAL FORCE     -1.138E-16   AT NODE        916   DOF  2
   INSTANCE: PLATE-1                                                                         
  CORRESPONDING RESIDUAL FORCE     -1.138E-16
 LARGEST INCREMENT OF DISP.         2.130E-05   AT NODE        997   DOF  2
   INSTANCE: PLATE-1                                                                         
 LARGEST CORRECTION TO DISP.       -1.737E-09   AT NODE       3316   DOF  2
   INSTANCE: PLATE-1                                                                         
          THE FORCE     EQUILIBRIUM RESPONSE WAS LINEAR IN THIS INCREMENT

 AVERAGE MOMENT                     8.938E-10   TIME AVG. MOMENT      1.000E-02
 LARGEST SCALED RESIDUAL MOMENT     1.554E-12   AT NODE        996   DOF  4
   INSTANCE: PLATE-1                                                                         
  CORRESPONDING RESIDUAL MOMENT     1.554E-12
 LARGEST INCREMENT OF ROTATION      3.284E-04   AT NODE        996   DOF  4
   INSTANCE: PLATE-1                                                                         
 LARGEST CORRECTION TO ROTATION     3.147E-05   AT NODE       7067   DOF  4
   INSTANCE: PLATE-1                                                                         
          THERE IS ZERO MOMENT    EVERYWHERE
 

 ***WARNING: THERE IS ZERO MOMENT EVERYWHERE IN THE MODEL BASED ON THE DEFAULT 
             CRITERION. PLEASE CHECK THE VALUE OF THE AVERAGE MOMENT DURING THE 
             CURRENT ITERATION TO VERIFY THAT THE MOMENT IS SMALL ENOUGH TO BE 
             TREATED AS ZERO. IF NOT, PLEASE USE THE SOLUTION CONTROLS TO RESET 
             THE CRITERION FOR ZERO MOMENT.

 AVERAGE HEAT FLUX                  4.079E-07   TIME AVG. HEAT FLUX   2.594E-07
 LARGEST RESIDUAL HEAT FLUX        -4.594E-17   AT NODE       1843   DOF 11
   INSTANCE: PLATE-1                                                                         
 LARGEST INCREMENT OF TEMP.         8.494E-03   AT NODE        996   DOF 11
   INSTANCE: PLATE-1                                                                         
 LARGEST CORRECTION TO TEMP.        9.018E-05   AT NODE        996   DOF 11
   INSTANCE: PLATE-1                                                                         
          THE HEAT FLUX EQUILIBRIUM RESPONSE WAS LINEAR IN THIS INCREMENT

 ITERATION SUMMARY FOR THE INCREMENT:   1 TOTAL ITERATIONS, OF WHICH
   0 ARE SEVERE DISCONTINUITY ITERATIONS AND  1 ARE EQUILIBRIUM ITERATIONS.

 TIME INCREMENT COMPLETED  2.000E+04,  FRACTION OF STEP COMPLETED  2.400E-02
 STEP TIME COMPLETED       2.400E+05,  TOTAL TIME COMPLETED        2.400E+05


  INCREMENT    13 STARTS. ATTEMPT NUMBER  1, TIME INCREMENT  2.000E+04
 
	UNSYMMETRIC NEW DIRECT SPARSE SOLVER RUNNING ON
 	1 HOST x 1 MPI RANK PER HOST x 8 THREADS PER RANK
        NUMBER OF EQUATIONS:  131600
        NUMBER OF RHS:        1
        NUMBER OF FLOPS:      2.553e+11
        SOLVER ELAPSED TIME:  1.4s

               CONVERGENCE CHECKS FOR EQUILIBRIUM ITERATION     1


 AVERAGE FORCE                      2.213E-04   TIME AVG. FORCE       1.265E-04
 LARGEST SCALED RESIDUAL FORCE      1.145E-16   AT NODE       1343   DOF  2
   INSTANCE: PLATE-1                                                                         
  CORRESPONDING RESIDUAL FORCE      1.145E-16
 LARGEST INCREMENT OF DISP.         2.130E-05   AT NODE        997   DOF  2
   INSTANCE: PLATE-1                                                                         
 LARGEST CORRECTION TO DISP.       -1.921E-09   AT NODE       3316   DOF  2
   INSTANCE: PLATE-1                                                                         
          THE FORCE     EQUILIBRIUM RESPONSE WAS LINEAR IN THIS INCREMENT

 AVERAGE MOMENT                     1.064E-09   TIME AVG. MOMENT      1.000E-02
 LARGEST SCALED RESIDUAL MOMENT     1.822E-12   AT NODE        996   DOF  4
   INSTANCE: PLATE-1                                                                         
  CORRESPONDING RESIDUAL MOMENT     1.822E-12
 LARGEST INCREMENT OF ROTATION      3.599E-04   AT NODE       7067   DOF  4
   INSTANCE: PLATE-1                                                                         
 LARGEST CORRECTION TO ROTATION     3.152E-05   AT NODE       7067   DOF  4
   INSTANCE: PLATE-1                                                                         
          THERE IS ZERO MOMENT    EVERYWHERE
 

 ***WARNING: THERE IS ZERO MOMENT EVERYWHERE IN THE MODEL BASED ON THE DEFAULT 
             CRITERION. PLEASE CHECK THE VALUE OF THE AVERAGE MOMENT DURING THE 
             CURRENT ITERATION TO VERIFY THAT THE MOMENT IS SMALL ENOUGH TO BE 
             TREATED AS ZERO. IF NOT, PLEASE USE THE SOLUTION CONTROLS TO RESET 
             THE CRITERION FOR ZERO MOMENT.

 AVERAGE HEAT FLUX                  4.451E-07   TIME AVG. HEAT FLUX   2.780E-07
 LARGEST RESIDUAL HEAT FLUX        -6.409E-17   AT NODE       1357   DOF 11
   INSTANCE: PLATE-1                                                                         
 LARGEST INCREMENT OF TEMP.         8.585E-03   AT NODE        996   DOF 11
   INSTANCE: PLATE-1                                                                         
 LARGEST CORRECTION TO TEMP.        9.024E-05   AT NODE        996   DOF 11
   INSTANCE: PLATE-1                                                                         
          THE HEAT FLUX EQUILIBRIUM RESPONSE WAS LINEAR IN THIS INCREMENT

 ITERATION SUMMARY FOR THE INCREMENT:   1 TOTAL ITERATIONS, OF WHICH
   0 ARE SEVERE DISCONTINUITY ITERATIONS AND  1 ARE EQUILIBRIUM ITERATIONS.

 TIME INCREMENT COMPLETED  2.000E+04,  FRACTION OF STEP COMPLETED  2.600E-02
 STEP TIME COMPLETED       2.600E+05,  TOTAL TIME COMPLETED        2.600E+05


  INCREMENT    14 STARTS. ATTEMPT NUMBER  1, TIME INCREMENT  2.000E+04
 
	UNSYMMETRIC NEW DIRECT SPARSE SOLVER RUNNING ON
 	1 HOST x 1 MPI RANK PER HOST x 8 THREADS PER RANK
        NUMBER OF EQUATIONS:  131600
        NUMBER OF RHS:        1
        NUMBER OF FLOPS:      2.553e+11
        SOLVER ELAPSED TIME:  1.4s

               CONVERGENCE CHECKS FOR EQUILIBRIUM ITERATION     1


 AVERAGE FORCE                      2.382E-04   TIME AVG. FORCE       1.351E-04
 LARGEST SCALED RESIDUAL FORCE     -1.112E-16   AT NODE       1414   DOF  2
   INSTANCE: PLATE-1                                                                         
  CORRESPONDING RESIDUAL FORCE     -1.112E-16
 LARGEST INCREMENT OF DISP.         2.130E-05   AT NODE        997   DOF  2
   INSTANCE: PLATE-1                                                                         
 LARGEST CORRECTION TO DISP.       -2.105E-09   AT NODE       3316   DOF  2
   INSTANCE: PLATE-1                                                                         
          THE FORCE     EQUILIBRIUM RESPONSE WAS LINEAR IN THIS INCREMENT

 AVERAGE MOMENT                     1.249E-09   TIME AVG. MOMENT      1.000E-02
 LARGEST SCALED RESIDUAL MOMENT     2.106E-12   AT NODE        996   DOF  4
   INSTANCE: PLATE-1                                                                         
  CORRESPONDING RESIDUAL MOMENT     2.106E-12
 LARGEST INCREMENT OF ROTATION      3.915E-04   AT NODE       7067   DOF  4
   INSTANCE: PLATE-1                                                                         
 LARGEST CORRECTION TO ROTATION     3.157E-05   AT NODE       7067   DOF  4
   INSTANCE: PLATE-1                                                                         
          THERE IS ZERO MOMENT    EVERYWHERE
 

 ***WARNING: THERE IS ZERO MOMENT EVERYWHERE IN THE MODEL BASED ON THE DEFAULT 
             CRITERION. PLEASE CHECK THE VALUE OF THE AVERAGE MOMENT DURING THE 
             CURRENT ITERATION TO VERIFY THAT THE MOMENT IS SMALL ENOUGH TO BE 
             TREATED AS ZERO. IF NOT, PLEASE USE THE SOLUTION CONTROLS TO RESET 
             THE CRITERION FOR ZERO MOMENT.

 AVERAGE HEAT FLUX                  4.822E-07   TIME AVG. HEAT FLUX   2.965E-07
 LARGEST RESIDUAL HEAT FLUX        -5.982E-17   AT NODE       1843   DOF 11
   INSTANCE: PLATE-1                                                                         
 LARGEST INCREMENT OF TEMP.         8.675E-03   AT NODE        996   DOF 11
   INSTANCE: PLATE-1                                                                         
 LARGEST CORRECTION TO TEMP.        9.028E-05   AT NODE        996   DOF 11
   INSTANCE: PLATE-1                                                                         
          THE HEAT FLUX EQUILIBRIUM RESPONSE WAS LINEAR IN THIS INCREMENT

 ITERATION SUMMARY FOR THE INCREMENT:   1 TOTAL ITERATIONS, OF WHICH
   0 ARE SEVERE DISCONTINUITY ITERATIONS AND  1 ARE EQUILIBRIUM ITERATIONS.

 TIME INCREMENT COMPLETED  2.000E+04,  FRACTION OF STEP COMPLETED  2.800E-02
 STEP TIME COMPLETED       2.800E+05,  TOTAL TIME COMPLETED        2.800E+05


  INCREMENT    15 STARTS. ATTEMPT NUMBER  1, TIME INCREMENT  2.000E+04
 
	UNSYMMETRIC NEW DIRECT SPARSE SOLVER RUNNING ON
 	1 HOST x 1 MPI RANK PER HOST x 8 THREADS PER RANK
        NUMBER OF EQUATIONS:  131600
        NUMBER OF RHS:        1
        NUMBER OF FLOPS:      2.553e+11
        SOLVER ELAPSED TIME:  1.4s

               CONVERGENCE CHECKS FOR EQUILIBRIUM ITERATION     1


 AVERAGE FORCE                      2.551E-04   TIME AVG. FORCE       1.436E-04
 LARGEST SCALED RESIDUAL FORCE      1.179E-16   AT NODE        912   DOF  2
   INSTANCE: PLATE-1                                                                         
  CORRESPONDING RESIDUAL FORCE      1.179E-16
 LARGEST INCREMENT OF DISP.         2.130E-05   AT NODE        997   DOF  2
   INSTANCE: PLATE-1                                                                         
 LARGEST CORRECTION TO DISP.       -2.290E-09   AT NODE       3316   DOF  2
   INSTANCE: PLATE-1                                                                         
          THE FORCE     EQUILIBRIUM RESPONSE WAS LINEAR IN THIS INCREMENT

 AVERAGE MOMENT                     1.449E-09   TIME AVG. MOMENT      1.000E-02
 LARGEST SCALED RESIDUAL MOMENT     2.405E-12   AT NODE        996   DOF  4
   INSTANCE: PLATE-1                                                                         
  CORRESPONDING RESIDUAL MOMENT     2.405E-12
 LARGEST INCREMENT OF ROTATION      4.231E-04   AT NODE       7067   DOF  4
   INSTANCE: PLATE-1                                                                         
 LARGEST CORRECTION TO ROTATION     3.162E-05   AT NODE       7067   DOF  4
   INSTANCE: PLATE-1                                                                         
          THERE IS ZERO MOMENT    EVERYWHERE
 

 ***WARNING: THERE IS ZERO MOMENT EVERYWHERE IN THE MODEL BASED ON THE DEFAULT 
             CRITERION. PLEASE CHECK THE VALUE OF THE AVERAGE MOMENT DURING THE 
             CURRENT ITERATION TO VERIFY THAT THE MOMENT IS SMALL ENOUGH TO BE 
             TREATED AS ZERO. IF NOT, PLEASE USE THE SOLUTION CONTROLS TO RESET 
             THE CRITERION FOR ZERO MOMENT.

 AVERAGE HEAT FLUX                  5.194E-07   TIME AVG. HEAT FLUX   3.151E-07
 LARGEST RESIDUAL HEAT FLUX         4.199E-17   AT NODE       1388   DOF 11
   INSTANCE: PLATE-1                                                                         
 LARGEST INCREMENT OF TEMP.         8.765E-03   AT NODE        996   DOF 11
   INSTANCE: PLATE-1                                                                         
 LARGEST CORRECTION TO TEMP.        9.027E-05   AT NODE        996   DOF 11
   INSTANCE: PLATE-1                                                                         
          THE HEAT FLUX EQUILIBRIUM RESPONSE WAS LINEAR IN THIS INCREMENT

 ITERATION SUMMARY FOR THE INCREMENT:   1 TOTAL ITERATIONS, OF WHICH
   0 ARE SEVERE DISCONTINUITY ITERATIONS AND  1 ARE EQUILIBRIUM ITERATIONS.

 TIME INCREMENT COMPLETED  2.000E+04,  FRACTION OF STEP COMPLETED  3.000E-02
 STEP TIME COMPLETED       3.000E+05,  TOTAL TIME COMPLETED        3.000E+05


  INCREMENT    16 STARTS. ATTEMPT NUMBER  1, TIME INCREMENT  2.000E+04
 
	UNSYMMETRIC NEW DIRECT SPARSE SOLVER RUNNING ON
 	1 HOST x 1 MPI RANK PER HOST x 8 THREADS PER RANK
        NUMBER OF EQUATIONS:  131600
        NUMBER OF RHS:        1
        NUMBER OF FLOPS:      2.553e+11
        SOLVER ELAPSED TIME:  1.4s

               CONVERGENCE CHECKS FOR EQUILIBRIUM ITERATION     1


 AVERAGE FORCE                      2.720E-04   TIME AVG. FORCE       1.522E-04
 LARGEST SCALED RESIDUAL FORCE      1.373E-16   AT NODE        862   DOF  2
   INSTANCE: PLATE-1                                                                         
  CORRESPONDING RESIDUAL FORCE      1.373E-16
 LARGEST INCREMENT OF DISP.         2.130E-05   AT NODE        997   DOF  2
   INSTANCE: PLATE-1                                                                         
 LARGEST CORRECTION TO DISP.       -2.476E-09   AT NODE       3316   DOF  2
   INSTANCE: PLATE-1                                                                         
          THE FORCE     EQUILIBRIUM RESPONSE WAS LINEAR IN THIS INCREMENT

 AVERAGE MOMENT                     1.664E-09   TIME AVG. MOMENT      1.000E-02
 LARGEST SCALED RESIDUAL MOMENT     2.716E-12   AT NODE        996   DOF  4
   INSTANCE: PLATE-1                                                                         
  CORRESPONDING RESIDUAL MOMENT     2.716E-12
 LARGEST INCREMENT OF ROTATION      4.548E-04   AT NODE       7067   DOF  4
   INSTANCE: PLATE-1                                                                         
 LARGEST CORRECTION TO ROTATION     3.168E-05   AT NODE       7067   DOF  4
   INSTANCE: PLATE-1                                                                         
          THERE IS ZERO MOMENT    EVERYWHERE
 

 ***WARNING: THERE IS ZERO MOMENT EVERYWHERE IN THE MODEL BASED ON THE DEFAULT 
             CRITERION. PLEASE CHECK THE VALUE OF THE AVERAGE MOMENT DURING THE 
             CURRENT ITERATION TO VERIFY THAT THE MOMENT IS SMALL ENOUGH TO BE 
             TREATED AS ZERO. IF NOT, PLEASE USE THE SOLUTION CONTROLS TO RESET 
             THE CRITERION FOR ZERO MOMENT.

 AVERAGE HEAT FLUX                  5.565E-07   TIME AVG. HEAT FLUX   3.337E-07
 LARGEST RESIDUAL HEAT FLUX        -4.761E-17   AT NODE      24076   DOF 11
   INSTANCE: PLATE-1                                                                         
 LARGEST INCREMENT OF TEMP.         8.855E-03   AT NODE        996   DOF 11
   INSTANCE: PLATE-1                                                                         
 LARGEST CORRECTION TO TEMP.        9.022E-05   AT NODE        996   DOF 11
   INSTANCE: PLATE-1                                                                         
          THE HEAT FLUX EQUILIBRIUM RESPONSE WAS LINEAR IN THIS INCREMENT

 ITERATION SUMMARY FOR THE INCREMENT:   1 TOTAL ITERATIONS, OF WHICH
   0 ARE SEVERE DISCONTINUITY ITERATIONS AND  1 ARE EQUILIBRIUM ITERATIONS.

 TIME INCREMENT COMPLETED  2.000E+04,  FRACTION OF STEP COMPLETED  3.200E-02
 STEP TIME COMPLETED       3.200E+05,  TOTAL TIME COMPLETED        3.200E+05


  INCREMENT    17 STARTS. ATTEMPT NUMBER  1, TIME INCREMENT  2.000E+04
 
	UNSYMMETRIC NEW DIRECT SPARSE SOLVER RUNNING ON
 	1 HOST x 1 MPI RANK PER HOST x 8 THREADS PER RANK
        NUMBER OF EQUATIONS:  131600
        NUMBER OF RHS:        1
        NUMBER OF FLOPS:      2.553e+11
        SOLVER ELAPSED TIME:  1.4s

               CONVERGENCE CHECKS FOR EQUILIBRIUM ITERATION     1


 AVERAGE FORCE                      2.889E-04   TIME AVG. FORCE       1.607E-04
 LARGEST SCALED RESIDUAL FORCE      1.242E-16   AT NODE        928   DOF  2
   INSTANCE: PLATE-1                                                                         
  CORRESPONDING RESIDUAL FORCE      1.242E-16
 LARGEST INCREMENT OF DISP.         2.130E-05   AT NODE        997   DOF  2
   INSTANCE: PLATE-1                                                                         
 LARGEST CORRECTION TO DISP.       -2.663E-09   AT NODE       3316   DOF  2
   INSTANCE: PLATE-1                                                                         
          THE FORCE     EQUILIBRIUM RESPONSE WAS LINEAR IN THIS INCREMENT

 AVERAGE MOMENT                     1.895E-09   TIME AVG. MOMENT      1.000E-02
 LARGEST SCALED RESIDUAL MOMENT     3.039E-12   AT NODE        996   DOF  4
   INSTANCE: PLATE-1                                                                         
  CORRESPONDING RESIDUAL MOMENT     3.039E-12
 LARGEST INCREMENT OF ROTATION      4.865E-04   AT NODE       7067   DOF  4
   INSTANCE: PLATE-1                                                                         
 LARGEST CORRECTION TO ROTATION     3.173E-05   AT NODE       7067   DOF  4
   INSTANCE: PLATE-1                                                                         
          THERE IS ZERO MOMENT    EVERYWHERE
 

 ***WARNING: THERE IS ZERO MOMENT EVERYWHERE IN THE MODEL BASED ON THE DEFAULT 
             CRITERION. PLEASE CHECK THE VALUE OF THE AVERAGE MOMENT DURING THE 
             CURRENT ITERATION TO VERIFY THAT THE MOMENT IS SMALL ENOUGH TO BE 
             TREATED AS ZERO. IF NOT, PLEASE USE THE SOLUTION CONTROLS TO RESET 
             THE CRITERION FOR ZERO MOMENT.

 AVERAGE HEAT FLUX                  5.937E-07   TIME AVG. HEAT FLUX   3.522E-07
 LARGEST RESIDUAL HEAT FLUX        -4.697E-17   AT NODE       1346   DOF 11
   INSTANCE: PLATE-1                                                                         
 LARGEST INCREMENT OF TEMP.         8.946E-03   AT NODE        996   DOF 11
   INSTANCE: PLATE-1                                                                         
 LARGEST CORRECTION TO TEMP.        9.013E-05   AT NODE        996   DOF 11
   INSTANCE: PLATE-1                                                                         
          THE HEAT FLUX EQUILIBRIUM RESPONSE WAS LINEAR IN THIS INCREMENT

 ITERATION SUMMARY FOR THE INCREMENT:   1 TOTAL ITERATIONS, OF WHICH
   0 ARE SEVERE DISCONTINUITY ITERATIONS AND  1 ARE EQUILIBRIUM ITERATIONS.

 TIME INCREMENT COMPLETED  2.000E+04,  FRACTION OF STEP COMPLETED  3.400E-02
 STEP TIME COMPLETED       3.400E+05,  TOTAL TIME COMPLETED        3.400E+05


  INCREMENT    18 STARTS. ATTEMPT NUMBER  1, TIME INCREMENT  2.000E+04
 
	UNSYMMETRIC NEW DIRECT SPARSE SOLVER RUNNING ON
 	1 HOST x 1 MPI RANK PER HOST x 8 THREADS PER RANK
        NUMBER OF EQUATIONS:  131600
        NUMBER OF RHS:        1
        NUMBER OF FLOPS:      2.553e+11
        SOLVER ELAPSED TIME:  1.4s

               CONVERGENCE CHECKS FOR EQUILIBRIUM ITERATION     1


 AVERAGE FORCE                      3.058E-04   TIME AVG. FORCE       1.693E-04
 LARGEST SCALED RESIDUAL FORCE     -1.420E-16   AT NODE       1414   DOF  2
   INSTANCE: PLATE-1                                                                         
  CORRESPONDING RESIDUAL FORCE     -1.420E-16
 LARGEST INCREMENT OF DISP.         2.130E-05   AT NODE        997   DOF  2
   INSTANCE: PLATE-1                                                                         
 LARGEST CORRECTION TO DISP.       -2.851E-09   AT NODE       3316   DOF  2
   INSTANCE: PLATE-1                                                                         
          THE FORCE     EQUILIBRIUM RESPONSE WAS LINEAR IN THIS INCREMENT

 AVERAGE MOMENT                     2.140E-09   TIME AVG. MOMENT      1.000E-02
 LARGEST SCALED RESIDUAL MOMENT     3.372E-12   AT NODE        996   DOF  4
   INSTANCE: PLATE-1                                                                         
  CORRESPONDING RESIDUAL MOMENT     3.372E-12
 LARGEST INCREMENT OF ROTATION      5.183E-04   AT NODE       7067   DOF  4
   INSTANCE: PLATE-1                                                                         
 LARGEST CORRECTION TO ROTATION     3.179E-05   AT NODE       7067   DOF  4
   INSTANCE: PLATE-1                                                                         
          THERE IS ZERO MOMENT    EVERYWHERE
 

 ***WARNING: THERE IS ZERO MOMENT EVERYWHERE IN THE MODEL BASED ON THE DEFAULT 
             CRITERION. PLEASE CHECK THE VALUE OF THE AVERAGE MOMENT DURING THE 
             CURRENT ITERATION TO VERIFY THAT THE MOMENT IS SMALL ENOUGH TO BE 
             TREATED AS ZERO. IF NOT, PLEASE USE THE SOLUTION CONTROLS TO RESET 
             THE CRITERION FOR ZERO MOMENT.

 AVERAGE HEAT FLUX                  6.308E-07   TIME AVG. HEAT FLUX   3.708E-07
 LARGEST RESIDUAL HEAT FLUX        -4.122E-17   AT NODE       1845   DOF 11
   INSTANCE: PLATE-1                                                                         
 LARGEST INCREMENT OF TEMP.         9.036E-03   AT NODE        996   DOF 11
   INSTANCE: PLATE-1                                                                         
 LARGEST CORRECTION TO TEMP.        9.000E-05   AT NODE        996   DOF 11
   INSTANCE: PLATE-1                                                                         
          THE HEAT FLUX EQUILIBRIUM RESPONSE WAS LINEAR IN THIS INCREMENT

 ITERATION SUMMARY FOR THE INCREMENT:   1 TOTAL ITERATIONS, OF WHICH
   0 ARE SEVERE DISCONTINUITY ITERATIONS AND  1 ARE EQUILIBRIUM ITERATIONS.

 TIME INCREMENT COMPLETED  2.000E+04,  FRACTION OF STEP COMPLETED  3.600E-02
 STEP TIME COMPLETED       3.600E+05,  TOTAL TIME COMPLETED        3.600E+05


  INCREMENT    19 STARTS. ATTEMPT NUMBER  1, TIME INCREMENT  2.000E+04
 
	UNSYMMETRIC NEW DIRECT SPARSE SOLVER RUNNING ON
 	1 HOST x 1 MPI RANK PER HOST x 8 THREADS PER RANK
        NUMBER OF EQUATIONS:  131600
        NUMBER OF RHS:        1
        NUMBER OF FLOPS:      2.553e+11
        SOLVER ELAPSED TIME:  1.3s

               CONVERGENCE CHECKS FOR EQUILIBRIUM ITERATION     1


 AVERAGE FORCE                      3.226E-04   TIME AVG. FORCE       1.778E-04
 LARGEST SCALED RESIDUAL FORCE     -1.140E-16   AT NODE       1386   DOF  2
   INSTANCE: PLATE-1                                                                         
  CORRESPONDING RESIDUAL FORCE     -1.140E-16
 LARGEST INCREMENT OF DISP.         2.130E-05   AT NODE        997   DOF  2
   INSTANCE: PLATE-1                                                                         
 LARGEST CORRECTION TO DISP.       -3.040E-09   AT NODE       3316   DOF  2
   INSTANCE: PLATE-1                                                                         
          THE FORCE     EQUILIBRIUM RESPONSE WAS LINEAR IN THIS INCREMENT

 AVERAGE MOMENT                     2.400E-09   TIME AVG. MOMENT      1.000E-02
 LARGEST SCALED RESIDUAL MOMENT     3.713E-12   AT NODE        996   DOF  4
   INSTANCE: PLATE-1                                                                         
  CORRESPONDING RESIDUAL MOMENT     3.713E-12
 LARGEST INCREMENT OF ROTATION      5.502E-04   AT NODE       7067   DOF  4
   INSTANCE: PLATE-1                                                                         
 LARGEST CORRECTION TO ROTATION     3.185E-05   AT NODE       7067   DOF  4
   INSTANCE: PLATE-1                                                                         
          THERE IS ZERO MOMENT    EVERYWHERE
 

 ***WARNING: THERE IS ZERO MOMENT EVERYWHERE IN THE MODEL BASED ON THE DEFAULT 
             CRITERION. PLEASE CHECK THE VALUE OF THE AVERAGE MOMENT DURING THE 
             CURRENT ITERATION TO VERIFY THAT THE MOMENT IS SMALL ENOUGH TO BE 
             TREATED AS ZERO. IF NOT, PLEASE USE THE SOLUTION CONTROLS TO RESET 
             THE CRITERION FOR ZERO MOMENT.

 AVERAGE HEAT FLUX                  6.679E-07   TIME AVG. HEAT FLUX   3.894E-07
 LARGEST RESIDUAL HEAT FLUX        -5.066E-17   AT NODE      24077   DOF 11
   INSTANCE: PLATE-1                                                                         
 LARGEST INCREMENT OF TEMP.         9.125E-03   AT NODE        996   DOF 11
   INSTANCE: PLATE-1                                                                         
 LARGEST CORRECTION TO TEMP.        8.982E-05   AT NODE        996   DOF 11
   INSTANCE: PLATE-1                                                                         
          THE HEAT FLUX EQUILIBRIUM RESPONSE WAS LINEAR IN THIS INCREMENT

 ITERATION SUMMARY FOR THE INCREMENT:   1 TOTAL ITERATIONS, OF WHICH
   0 ARE SEVERE DISCONTINUITY ITERATIONS AND  1 ARE EQUILIBRIUM ITERATIONS.

 TIME INCREMENT COMPLETED  2.000E+04,  FRACTION OF STEP COMPLETED  3.800E-02
 STEP TIME COMPLETED       3.800E+05,  TOTAL TIME COMPLETED        3.800E+05


  INCREMENT    20 STARTS. ATTEMPT NUMBER  1, TIME INCREMENT  2.000E+04
 
	UNSYMMETRIC NEW DIRECT SPARSE SOLVER RUNNING ON
 	1 HOST x 1 MPI RANK PER HOST x 8 THREADS PER RANK
        NUMBER OF EQUATIONS:  131600
        NUMBER OF RHS:        1
        NUMBER OF FLOPS:      2.553e+11
        SOLVER ELAPSED TIME:  1.4s

               CONVERGENCE CHECKS FOR EQUILIBRIUM ITERATION     1


 AVERAGE FORCE                      3.394E-04   TIME AVG. FORCE       1.863E-04
 LARGEST SCALED RESIDUAL FORCE     -1.215E-16   AT NODE       1359   DOF  2
   INSTANCE: PLATE-1                                                                         
  CORRESPONDING RESIDUAL FORCE     -1.215E-16
 LARGEST INCREMENT OF DISP.         2.130E-05   AT NODE        997   DOF  2
   INSTANCE: PLATE-1                                                                         
 LARGEST CORRECTION TO DISP.       -3.230E-09   AT NODE       3316   DOF  2
   INSTANCE: PLATE-1                                                                         
          THE FORCE     EQUILIBRIUM RESPONSE WAS LINEAR IN THIS INCREMENT

 AVERAGE MOMENT                     2.675E-09   TIME AVG. MOMENT      1.000E-02
 LARGEST SCALED RESIDUAL MOMENT     4.061E-12   AT NODE        996   DOF  4
   INSTANCE: PLATE-1                                                                         
  CORRESPONDING RESIDUAL MOMENT     4.061E-12
 LARGEST INCREMENT OF ROTATION      5.821E-04   AT NODE       7067   DOF  4
   INSTANCE: PLATE-1                                                                         
 LARGEST CORRECTION TO ROTATION     3.191E-05   AT NODE       7067   DOF  4
   INSTANCE: PLATE-1                                                                         
          THERE IS ZERO MOMENT    EVERYWHERE
 

 ***WARNING: THERE IS ZERO MOMENT EVERYWHERE IN THE MODEL BASED ON THE DEFAULT 
             CRITERION. PLEASE CHECK THE VALUE OF THE AVERAGE MOMENT DURING THE 
             CURRENT ITERATION TO VERIFY THAT THE MOMENT IS SMALL ENOUGH TO BE 
             TREATED AS ZERO. IF NOT, PLEASE USE THE SOLUTION CONTROLS TO RESET 
             THE CRITERION FOR ZERO MOMENT.

 AVERAGE HEAT FLUX                  7.050E-07   TIME AVG. HEAT FLUX   4.079E-07
 LARGEST RESIDUAL HEAT FLUX         3.956E-17   AT NODE       1854   DOF 11
   INSTANCE: PLATE-1                                                                         
 LARGEST INCREMENT OF TEMP.         9.215E-03   AT NODE        996   DOF 11
   INSTANCE: PLATE-1                                                                         
 LARGEST CORRECTION TO TEMP.        8.960E-05   AT NODE        996   DOF 11
   INSTANCE: PLATE-1                                                                         
          THE HEAT FLUX EQUILIBRIUM RESPONSE WAS LINEAR IN THIS INCREMENT

 ITERATION SUMMARY FOR THE INCREMENT:   1 TOTAL ITERATIONS, OF WHICH
   0 ARE SEVERE DISCONTINUITY ITERATIONS AND  1 ARE EQUILIBRIUM ITERATIONS.

 TIME INCREMENT COMPLETED  2.000E+04,  FRACTION OF STEP COMPLETED  4.000E-02
 STEP TIME COMPLETED       4.000E+05,  TOTAL TIME COMPLETED        4.000E+05


  INCREMENT    21 STARTS. ATTEMPT NUMBER  1, TIME INCREMENT  2.000E+04
 
	UNSYMMETRIC NEW DIRECT SPARSE SOLVER RUNNING ON
 	1 HOST x 1 MPI RANK PER HOST x 8 THREADS PER RANK
        NUMBER OF EQUATIONS:  131600
        NUMBER OF RHS:        1
        NUMBER OF FLOPS:      2.553e+11
        SOLVER ELAPSED TIME:  1.4s

               CONVERGENCE CHECKS FOR EQUILIBRIUM ITERATION     1


 AVERAGE FORCE                      3.562E-04   TIME AVG. FORCE       1.948E-04
 LARGEST SCALED RESIDUAL FORCE     -1.213E-16   AT NODE       1852   DOF  2
   INSTANCE: PLATE-1                                                                         
  CORRESPONDING RESIDUAL FORCE     -1.213E-16
 LARGEST INCREMENT OF DISP.         2.130E-05   AT NODE        997   DOF  2
   INSTANCE: PLATE-1                                                                         
 LARGEST CORRECTION TO DISP.       -3.422E-09   AT NODE       3316   DOF  2
   INSTANCE: PLATE-1                                                                         
          THE FORCE     EQUILIBRIUM RESPONSE WAS LINEAR IN THIS INCREMENT

 AVERAGE MOMENT                     2.965E-09   TIME AVG. MOMENT      1.000E-02
 LARGEST SCALED RESIDUAL MOMENT     4.414E-12   AT NODE        996   DOF  4
   INSTANCE: PLATE-1                                                                         
  CORRESPONDING RESIDUAL MOMENT     4.414E-12
 LARGEST INCREMENT OF ROTATION      6.140E-04   AT NODE       7067   DOF  4
   INSTANCE: PLATE-1                                                                         
 LARGEST CORRECTION TO ROTATION     3.197E-05   AT NODE       7067   DOF  4
   INSTANCE: PLATE-1                                                                         
          THERE IS ZERO MOMENT    EVERYWHERE
 

 ***WARNING: THERE IS ZERO MOMENT EVERYWHERE IN THE MODEL BASED ON THE DEFAULT 
             CRITERION. PLEASE CHECK THE VALUE OF THE AVERAGE MOMENT DURING THE 
             CURRENT ITERATION TO VERIFY THAT THE MOMENT IS SMALL ENOUGH TO BE 
             TREATED AS ZERO. IF NOT, PLEASE USE THE SOLUTION CONTROLS TO RESET 
             THE CRITERION FOR ZERO MOMENT.

 AVERAGE HEAT FLUX                  7.420E-07   TIME AVG. HEAT FLUX   4.265E-07
 LARGEST RESIDUAL HEAT FLUX        -4.436E-17   AT NODE        891   DOF 11
   INSTANCE: PLATE-1                                                                         
 LARGEST INCREMENT OF TEMP.         9.304E-03   AT NODE        996   DOF 11
   INSTANCE: PLATE-1                                                                         
 LARGEST CORRECTION TO TEMP.        8.933E-05   AT NODE        996   DOF 11
   INSTANCE: PLATE-1                                                                         
          THE HEAT FLUX EQUILIBRIUM RESPONSE WAS LINEAR IN THIS INCREMENT

 ITERATION SUMMARY FOR THE INCREMENT:   1 TOTAL ITERATIONS, OF WHICH
   0 ARE SEVERE DISCONTINUITY ITERATIONS AND  1 ARE EQUILIBRIUM ITERATIONS.

 TIME INCREMENT COMPLETED  2.000E+04,  FRACTION OF STEP COMPLETED  4.200E-02
 STEP TIME COMPLETED       4.200E+05,  TOTAL TIME COMPLETED        4.200E+05


  INCREMENT    22 STARTS. ATTEMPT NUMBER  1, TIME INCREMENT  2.000E+04
 
	UNSYMMETRIC NEW DIRECT SPARSE SOLVER RUNNING ON
 	1 HOST x 1 MPI RANK PER HOST x 8 THREADS PER RANK
        NUMBER OF EQUATIONS:  131600
        NUMBER OF RHS:        1
        NUMBER OF FLOPS:      2.553e+11
        SOLVER ELAPSED TIME:  1.4s

               CONVERGENCE CHECKS FOR EQUILIBRIUM ITERATION     1


 AVERAGE FORCE                      3.730E-04   TIME AVG. FORCE       2.033E-04
 LARGEST SCALED RESIDUAL FORCE      1.399E-16   AT NODE       1922   DOF  2
   INSTANCE: PLATE-1                                                                         
  CORRESPONDING RESIDUAL FORCE      1.399E-16
 LARGEST INCREMENT OF DISP.         2.130E-05   AT NODE        997   DOF  2
   INSTANCE: PLATE-1                                                                         
 LARGEST CORRECTION TO DISP.       -3.614E-09   AT NODE       3316   DOF  2
   INSTANCE: PLATE-1                                                                         
          THE FORCE     EQUILIBRIUM RESPONSE WAS LINEAR IN THIS INCREMENT

 AVERAGE MOMENT                     3.271E-09   TIME AVG. MOMENT      1.000E-02
 LARGEST SCALED RESIDUAL MOMENT     4.771E-12   AT NODE        996   DOF  4
   INSTANCE: PLATE-1                                                                         
  CORRESPONDING RESIDUAL MOMENT     4.771E-12
 LARGEST INCREMENT OF ROTATION      6.461E-04   AT NODE       7067   DOF  4
   INSTANCE: PLATE-1                                                                         
 LARGEST CORRECTION TO ROTATION     3.204E-05   AT NODE       7067   DOF  4
   INSTANCE: PLATE-1                                                                         
          THERE IS ZERO MOMENT    EVERYWHERE
 

 ***WARNING: THERE IS ZERO MOMENT EVERYWHERE IN THE MODEL BASED ON THE DEFAULT 
             CRITERION. PLEASE CHECK THE VALUE OF THE AVERAGE MOMENT DURING THE 
             CURRENT ITERATION TO VERIFY THAT THE MOMENT IS SMALL ENOUGH TO BE 
             TREATED AS ZERO. IF NOT, PLEASE USE THE SOLUTION CONTROLS TO RESET 
             THE CRITERION FOR ZERO MOMENT.

 AVERAGE HEAT FLUX                  7.791E-07   TIME AVG. HEAT FLUX   4.451E-07
 LARGEST RESIDUAL HEAT FLUX        -5.853E-17   AT NODE      24285   DOF 11
   INSTANCE: PLATE-1                                                                         
 LARGEST INCREMENT OF TEMP.         9.393E-03   AT NODE        996   DOF 11
   INSTANCE: PLATE-1                                                                         
 LARGEST CORRECTION TO TEMP.        8.900E-05   AT NODE        996   DOF 11
   INSTANCE: PLATE-1                                                                         
          THE HEAT FLUX EQUILIBRIUM RESPONSE WAS LINEAR IN THIS INCREMENT

 ITERATION SUMMARY FOR THE INCREMENT:   1 TOTAL ITERATIONS, OF WHICH
   0 ARE SEVERE DISCONTINUITY ITERATIONS AND  1 ARE EQUILIBRIUM ITERATIONS.

 TIME INCREMENT COMPLETED  2.000E+04,  FRACTION OF STEP COMPLETED  4.400E-02
 STEP TIME COMPLETED       4.400E+05,  TOTAL TIME COMPLETED        4.400E+05


  INCREMENT    23 STARTS. ATTEMPT NUMBER  1, TIME INCREMENT  2.000E+04
 
	UNSYMMETRIC NEW DIRECT SPARSE SOLVER RUNNING ON
 	1 HOST x 1 MPI RANK PER HOST x 8 THREADS PER RANK
        NUMBER OF EQUATIONS:  131600
        NUMBER OF RHS:        1
        NUMBER OF FLOPS:      2.553e+11
        SOLVER ELAPSED TIME:  1.4s

               CONVERGENCE CHECKS FOR EQUILIBRIUM ITERATION     1


 AVERAGE FORCE                      3.897E-04   TIME AVG. FORCE       2.117E-04
 LARGEST SCALED RESIDUAL FORCE      1.169E-16   AT NODE       1353   DOF  2
   INSTANCE: PLATE-1                                                                         
  CORRESPONDING RESIDUAL FORCE      1.169E-16
 LARGEST INCREMENT OF DISP.         2.130E-05   AT NODE        997   DOF  2
   INSTANCE: PLATE-1                                                                         
 LARGEST CORRECTION TO DISP.       -3.808E-09   AT NODE       3316   DOF  2
   INSTANCE: PLATE-1                                                                         
          THE FORCE     EQUILIBRIUM RESPONSE WAS LINEAR IN THIS INCREMENT

 AVERAGE MOMENT                     3.591E-09   TIME AVG. MOMENT      1.000E-02
 LARGEST SCALED RESIDUAL MOMENT     5.130E-12   AT NODE        996   DOF  4
   INSTANCE: PLATE-1                                                                         
  CORRESPONDING RESIDUAL MOMENT     5.130E-12
 LARGEST INCREMENT OF ROTATION      6.782E-04   AT NODE       7067   DOF  4
   INSTANCE: PLATE-1                                                                         
 LARGEST CORRECTION TO ROTATION     3.211E-05   AT NODE       7067   DOF  4
   INSTANCE: PLATE-1                                                                         
          THERE IS ZERO MOMENT    EVERYWHERE
 

 ***WARNING: THERE IS ZERO MOMENT EVERYWHERE IN THE MODEL BASED ON THE DEFAULT 
             CRITERION. PLEASE CHECK THE VALUE OF THE AVERAGE MOMENT DURING THE 
             CURRENT ITERATION TO VERIFY THAT THE MOMENT IS SMALL ENOUGH TO BE 
             TREATED AS ZERO. IF NOT, PLEASE USE THE SOLUTION CONTROLS TO RESET 
             THE CRITERION FOR ZERO MOMENT.

 AVERAGE HEAT FLUX                  8.162E-07   TIME AVG. HEAT FLUX   4.636E-07
 LARGEST RESIDUAL HEAT FLUX        -6.200E-17   AT NODE      20200   DOF 11
   INSTANCE: PLATE-1                                                                         
 LARGEST INCREMENT OF TEMP.         9.482E-03   AT NODE        996   DOF 11
   INSTANCE: PLATE-1                                                                         
 LARGEST CORRECTION TO TEMP.        8.863E-05   AT NODE        996   DOF 11
   INSTANCE: PLATE-1                                                                         
          THE HEAT FLUX EQUILIBRIUM RESPONSE WAS LINEAR IN THIS INCREMENT

 ITERATION SUMMARY FOR THE INCREMENT:   1 TOTAL ITERATIONS, OF WHICH
   0 ARE SEVERE DISCONTINUITY ITERATIONS AND  1 ARE EQUILIBRIUM ITERATIONS.

 TIME INCREMENT COMPLETED  2.000E+04,  FRACTION OF STEP COMPLETED  4.600E-02
 STEP TIME COMPLETED       4.600E+05,  TOTAL TIME COMPLETED        4.600E+05


  INCREMENT    24 STARTS. ATTEMPT NUMBER  1, TIME INCREMENT  2.000E+04
 
	UNSYMMETRIC NEW DIRECT SPARSE SOLVER RUNNING ON
 	1 HOST x 1 MPI RANK PER HOST x 8 THREADS PER RANK
        NUMBER OF EQUATIONS:  131600
        NUMBER OF RHS:        1
        NUMBER OF FLOPS:      2.553e+11
        SOLVER ELAPSED TIME:  1.4s

               CONVERGENCE CHECKS FOR EQUILIBRIUM ITERATION     1


 AVERAGE FORCE                      4.064E-04   TIME AVG. FORCE       2.202E-04
 LARGEST SCALED RESIDUAL FORCE     -1.036E-16   AT NODE        859   DOF  2
   INSTANCE: PLATE-1                                                                         
  CORRESPONDING RESIDUAL FORCE     -1.036E-16
 LARGEST INCREMENT OF DISP.         2.130E-05   AT NODE        997   DOF  2
   INSTANCE: PLATE-1                                                                         
 LARGEST CORRECTION TO DISP.       -4.004E-09   AT NODE       3316   DOF  2
   INSTANCE: PLATE-1                                                                         
          THE FORCE     EQUILIBRIUM RESPONSE WAS LINEAR IN THIS INCREMENT

 AVERAGE MOMENT                     3.927E-09   TIME AVG. MOMENT      1.000E-02
 LARGEST SCALED RESIDUAL MOMENT     5.488E-12   AT NODE        996   DOF  4
   INSTANCE: PLATE-1                                                                         
  CORRESPONDING RESIDUAL MOMENT     5.488E-12
 LARGEST INCREMENT OF ROTATION      7.104E-04   AT NODE       7067   DOF  4
   INSTANCE: PLATE-1                                                                         
 LARGEST CORRECTION TO ROTATION     3.218E-05   AT NODE       7067   DOF  4
   INSTANCE: PLATE-1                                                                         
          THERE IS ZERO MOMENT    EVERYWHERE
 

[...]
  CORRESPONDING RESIDUAL FORCE      1.112E-16
 LARGEST INCREMENT OF DISP.         2.003E-05   AT NODE       2021   DOF  2
   INSTANCE: PLATE-1                                                                         
 LARGEST CORRECTION TO DISP.       -3.094E-08   AT NODE       1524   DOF  1
   INSTANCE: PLATE-1                                                                         
          THE FORCE     EQUILIBRIUM RESPONSE WAS LINEAR IN THIS INCREMENT

 AVERAGE MOMENT                     1.272E-06   TIME AVG. MOMENT      1.051E-06
 LARGEST SCALED RESIDUAL MOMENT    -1.489E-09   AT NODE       1493   DOF  4
   INSTANCE: PLATE-1                                                                         
  CORRESPONDING RESIDUAL MOMENT    -1.489E-09
 LARGEST INCREMENT OF ROTATION      1.165E-04   AT NODE       1203   DOF  4
   INSTANCE: PLATE-1                                                                         
 LARGEST CORRECTION TO ROTATION    -1.573E-07   AT NODE       1203   DOF  4
   INSTANCE: PLATE-1                                                                         
          THE MOMENT    EQUILIBRIUM EQUATIONS HAVE CONVERGED

 AVERAGE HEAT FLUX                  5.696E-08   TIME AVG. HEAT FLUX   1.347E-06
 LARGEST RESIDUAL HEAT FLUX         4.170E-17   AT NODE       4381   DOF 11
   INSTANCE: PLATE-1                                                                         
 LARGEST INCREMENT OF TEMP.         6.172E-05   AT NODE       1028   DOF 11
   INSTANCE: PLATE-1                                                                         
 LARGEST CORRECTION TO TEMP.       -1.171E-07   AT NODE       1029   DOF 11
   INSTANCE: PLATE-1                                                                         
          THE HEAT FLUX EQUILIBRIUM RESPONSE WAS LINEAR IN THIS INCREMENT

 ITERATION SUMMARY FOR THE INCREMENT:   1 TOTAL ITERATIONS, OF WHICH
   0 ARE SEVERE DISCONTINUITY ITERATIONS AND  1 ARE EQUILIBRIUM ITERATIONS.

 TIME INCREMENT COMPLETED  2.000E+04,  FRACTION OF STEP COMPLETED  0.988    
 STEP TIME COMPLETED       9.880E+06,  TOTAL TIME COMPLETED        9.880E+06


  INCREMENT   495 STARTS. ATTEMPT NUMBER  1, TIME INCREMENT  2.000E+04
 
	UNSYMMETRIC NEW DIRECT SPARSE SOLVER RUNNING ON
 	1 HOST x 1 MPI RANK PER HOST x 8 THREADS PER RANK
        NUMBER OF EQUATIONS:  131600
        NUMBER OF RHS:        1
        NUMBER OF FLOPS:      2.553e+11
        SOLVER ELAPSED TIME:  2.2s

               CONVERGENCE CHECKS FOR EQUILIBRIUM ITERATION     1


 AVERAGE FORCE                      3.029E-07   TIME AVG. FORCE       5.457E-04
 LARGEST SCALED RESIDUAL FORCE     -1.122E-16   AT NODE        962   DOF  2
   INSTANCE: PLATE-1                                                                         
  CORRESPONDING RESIDUAL FORCE     -1.122E-16
 LARGEST INCREMENT OF DISP.         2.003E-05   AT NODE       2021   DOF  2
   INSTANCE: PLATE-1                                                                         
 LARGEST CORRECTION TO DISP.       -3.089E-08   AT NODE       1524   DOF  1
   INSTANCE: PLATE-1                                                                         
          THE FORCE     EQUILIBRIUM RESPONSE WAS LINEAR IN THIS INCREMENT

 AVERAGE MOMENT                     1.272E-06   TIME AVG. MOMENT      1.052E-06
 LARGEST SCALED RESIDUAL MOMENT    -1.475E-09   AT NODE        499   DOF  4
   INSTANCE: PLATE-1                                                                         
  CORRESPONDING RESIDUAL MOMENT    -1.475E-09
 LARGEST INCREMENT OF ROTATION      1.164E-04   AT NODE       1203   DOF  4
   INSTANCE: PLATE-1                                                                         
 LARGEST CORRECTION TO ROTATION    -1.573E-07   AT NODE       1203   DOF  4
   INSTANCE: PLATE-1                                                                         
          THE MOMENT    EQUILIBRIUM EQUATIONS HAVE CONVERGED

 AVERAGE HEAT FLUX                  5.685E-08   TIME AVG. HEAT FLUX   1.344E-06
 LARGEST RESIDUAL HEAT FLUX        -4.122E-17   AT NODE       3018   DOF 11
   INSTANCE: PLATE-1                                                                         
 LARGEST INCREMENT OF TEMP.         6.182E-05   AT NODE       1028   DOF 11
   INSTANCE: PLATE-1                                                                         
 LARGEST CORRECTION TO TEMP.       -1.164E-07   AT NODE       1029   DOF 11
   INSTANCE: PLATE-1                                                                         
          THE HEAT FLUX EQUILIBRIUM RESPONSE WAS LINEAR IN THIS INCREMENT

 ITERATION SUMMARY FOR THE INCREMENT:   1 TOTAL ITERATIONS, OF WHICH
   0 ARE SEVERE DISCONTINUITY ITERATIONS AND  1 ARE EQUILIBRIUM ITERATIONS.

 TIME INCREMENT COMPLETED  2.000E+04,  FRACTION OF STEP COMPLETED  0.990    
 STEP TIME COMPLETED       9.900E+06,  TOTAL TIME COMPLETED        9.900E+06


  INCREMENT   496 STARTS. ATTEMPT NUMBER  1, TIME INCREMENT  2.000E+04
 
	UNSYMMETRIC NEW DIRECT SPARSE SOLVER RUNNING ON
 	1 HOST x 1 MPI RANK PER HOST x 8 THREADS PER RANK
        NUMBER OF EQUATIONS:  131600
        NUMBER OF RHS:        1
        NUMBER OF FLOPS:      2.553e+11
        SOLVER ELAPSED TIME:  2.1s

               CONVERGENCE CHECKS FOR EQUILIBRIUM ITERATION     1


 AVERAGE FORCE                      3.027E-07   TIME AVG. FORCE       5.446E-04
 LARGEST SCALED RESIDUAL FORCE     -1.312E-16   AT NODE        849   DOF  2
   INSTANCE: PLATE-1                                                                         
  CORRESPONDING RESIDUAL FORCE     -1.312E-16
 LARGEST INCREMENT OF DISP.         2.003E-05   AT NODE       2021   DOF  2
   INSTANCE: PLATE-1                                                                         
 LARGEST CORRECTION TO DISP.       -3.085E-08   AT NODE       1524   DOF  1
   INSTANCE: PLATE-1                                                                         
          THE FORCE     EQUILIBRIUM RESPONSE WAS LINEAR IN THIS INCREMENT

 AVERAGE MOMENT                     1.272E-06   TIME AVG. MOMENT      1.052E-06
 LARGEST SCALED RESIDUAL MOMENT    -1.461E-09   AT NODE        499   DOF  4
   INSTANCE: PLATE-1                                                                         
  CORRESPONDING RESIDUAL MOMENT    -1.461E-09
 LARGEST INCREMENT OF ROTATION      1.162E-04   AT NODE       1203   DOF  4
   INSTANCE: PLATE-1                                                                         
 LARGEST CORRECTION TO ROTATION    -1.573E-07   AT NODE       1203   DOF  4
   INSTANCE: PLATE-1                                                                         
          THE MOMENT    EQUILIBRIUM EQUATIONS HAVE CONVERGED

 AVERAGE HEAT FLUX                  5.675E-08   TIME AVG. HEAT FLUX   1.341E-06
 LARGEST RESIDUAL HEAT FLUX        -3.800E-17   AT NODE       4809   DOF 11
   INSTANCE: PLATE-1                                                                         
 LARGEST INCREMENT OF TEMP.         6.192E-05   AT NODE       1028   DOF 11
   INSTANCE: PLATE-1                                                                         
 LARGEST CORRECTION TO TEMP.       -1.157E-07   AT NODE       1029   DOF 11
   INSTANCE: PLATE-1                                                                         
          THE HEAT FLUX EQUILIBRIUM RESPONSE WAS LINEAR IN THIS INCREMENT

 ITERATION SUMMARY FOR THE INCREMENT:   1 TOTAL ITERATIONS, OF WHICH
   0 ARE SEVERE DISCONTINUITY ITERATIONS AND  1 ARE EQUILIBRIUM ITERATIONS.

 TIME INCREMENT COMPLETED  2.000E+04,  FRACTION OF STEP COMPLETED  0.992    
 STEP TIME COMPLETED       9.920E+06,  TOTAL TIME COMPLETED        9.920E+06


  INCREMENT   497 STARTS. ATTEMPT NUMBER  1, TIME INCREMENT  2.000E+04
 
	UNSYMMETRIC NEW DIRECT SPARSE SOLVER RUNNING ON
 	1 HOST x 1 MPI RANK PER HOST x 8 THREADS PER RANK
        NUMBER OF EQUATIONS:  131600
        NUMBER OF RHS:        1
        NUMBER OF FLOPS:      2.553e+11
        SOLVER ELAPSED TIME:  2.1s

               CONVERGENCE CHECKS FOR EQUILIBRIUM ITERATION     1


 AVERAGE FORCE                      3.026E-07   TIME AVG. FORCE       5.435E-04
 LARGEST SCALED RESIDUAL FORCE     -1.609E-16   AT NODE       1851   DOF  2
   INSTANCE: PLATE-1                                                                         
  CORRESPONDING RESIDUAL FORCE     -1.609E-16
 LARGEST INCREMENT OF DISP.         2.003E-05   AT NODE       2021   DOF  2
   INSTANCE: PLATE-1                                                                         
 LARGEST CORRECTION TO DISP.       -3.080E-08   AT NODE       1524   DOF  1
   INSTANCE: PLATE-1                                                                         
          THE FORCE     EQUILIBRIUM RESPONSE WAS LINEAR IN THIS INCREMENT

 AVERAGE MOMENT                     1.272E-06   TIME AVG. MOMENT      1.053E-06
 LARGEST SCALED RESIDUAL MOMENT    -1.447E-09   AT NODE        499   DOF  4
   INSTANCE: PLATE-1                                                                         
  CORRESPONDING RESIDUAL MOMENT    -1.447E-09
 LARGEST INCREMENT OF ROTATION      1.161E-04   AT NODE       1203   DOF  4
   INSTANCE: PLATE-1                                                                         
 LARGEST CORRECTION TO ROTATION    -1.574E-07   AT NODE       1203   DOF  4
   INSTANCE: PLATE-1                                                                         
          THE MOMENT    EQUILIBRIUM EQUATIONS HAVE CONVERGED

 AVERAGE HEAT FLUX                  5.665E-08   TIME AVG. HEAT FLUX   1.339E-06
 LARGEST RESIDUAL HEAT FLUX         3.526E-17   AT NODE       3988   DOF 11
   INSTANCE: PLATE-1                                                                         
 LARGEST INCREMENT OF TEMP.         6.202E-05   AT NODE       1028   DOF 11
   INSTANCE: PLATE-1                                                                         
 LARGEST CORRECTION TO TEMP.       -1.150E-07   AT NODE       1029   DOF 11
   INSTANCE: PLATE-1                                                                         
          THE HEAT FLUX EQUILIBRIUM RESPONSE WAS LINEAR IN THIS INCREMENT

 ITERATION SUMMARY FOR THE INCREMENT:   1 TOTAL ITERATIONS, OF WHICH
   0 ARE SEVERE DISCONTINUITY ITERATIONS AND  1 ARE EQUILIBRIUM ITERATIONS.

 TIME INCREMENT COMPLETED  2.000E+04,  FRACTION OF STEP COMPLETED  0.994    
 STEP TIME COMPLETED       9.940E+06,  TOTAL TIME COMPLETED        9.940E+06


  INCREMENT   498 STARTS. ATTEMPT NUMBER  1, TIME INCREMENT  2.000E+04
 
	UNSYMMETRIC NEW DIRECT SPARSE SOLVER RUNNING ON
 	1 HOST x 1 MPI RANK PER HOST x 8 THREADS PER RANK
        NUMBER OF EQUATIONS:  131600
        NUMBER OF RHS:        1
        NUMBER OF FLOPS:      2.553e+11
        SOLVER ELAPSED TIME:  2.1s

               CONVERGENCE CHECKS FOR EQUILIBRIUM ITERATION     1


 AVERAGE FORCE                      3.024E-07   TIME AVG. FORCE       5.424E-04
 LARGEST SCALED RESIDUAL FORCE      1.212E-16   AT NODE        862   DOF  2
   INSTANCE: PLATE-1                                                                         
  CORRESPONDING RESIDUAL FORCE      1.212E-16
 LARGEST INCREMENT OF DISP.         2.003E-05   AT NODE       2021   DOF  2
   INSTANCE: PLATE-1                                                                         
 LARGEST CORRECTION TO DISP.       -3.076E-08   AT NODE       1524   DOF  1
   INSTANCE: PLATE-1                                                                         
          THE FORCE     EQUILIBRIUM RESPONSE WAS LINEAR IN THIS INCREMENT

 AVERAGE MOMENT                     1.272E-06   TIME AVG. MOMENT      1.054E-06
 LARGEST SCALED RESIDUAL MOMENT    -1.432E-09   AT NODE        499   DOF  4
   INSTANCE: PLATE-1                                                                         
  CORRESPONDING RESIDUAL MOMENT    -1.432E-09
 LARGEST INCREMENT OF ROTATION      1.159E-04   AT NODE       1203   DOF  4
   INSTANCE: PLATE-1                                                                         
 LARGEST CORRECTION TO ROTATION    -1.574E-07   AT NODE       1203   DOF  4
   INSTANCE: PLATE-1                                                                         
          THE MOMENT    EQUILIBRIUM EQUATIONS HAVE CONVERGED

 AVERAGE HEAT FLUX                  5.653E-08   TIME AVG. HEAT FLUX   1.336E-06
 LARGEST RESIDUAL HEAT FLUX        -3.500E-17   AT NODE       4827   DOF 11
   INSTANCE: PLATE-1                                                                         
 LARGEST INCREMENT OF TEMP.         6.211E-05   AT NODE       1028   DOF 11
   INSTANCE: PLATE-1                                                                         
 LARGEST CORRECTION TO TEMP.       -1.143E-07   AT NODE       1029   DOF 11
   INSTANCE: PLATE-1                                                                         
          THE HEAT FLUX EQUILIBRIUM RESPONSE WAS LINEAR IN THIS INCREMENT

 ITERATION SUMMARY FOR THE INCREMENT:   1 TOTAL ITERATIONS, OF WHICH
   0 ARE SEVERE DISCONTINUITY ITERATIONS AND  1 ARE EQUILIBRIUM ITERATIONS.

 TIME INCREMENT COMPLETED  2.000E+04,  FRACTION OF STEP COMPLETED  0.996    
 STEP TIME COMPLETED       9.960E+06,  TOTAL TIME COMPLETED        9.960E+06


  INCREMENT   499 STARTS. ATTEMPT NUMBER  1, TIME INCREMENT  2.000E+04
 
	UNSYMMETRIC NEW DIRECT SPARSE SOLVER RUNNING ON
 	1 HOST x 1 MPI RANK PER HOST x 8 THREADS PER RANK
        NUMBER OF EQUATIONS:  131600
        NUMBER OF RHS:        1
        NUMBER OF FLOPS:      2.553e+11
        SOLVER ELAPSED TIME:  2.1s

               CONVERGENCE CHECKS FOR EQUILIBRIUM ITERATION     1


 AVERAGE FORCE                      3.022E-07   TIME AVG. FORCE       5.413E-04
 LARGEST SCALED RESIDUAL FORCE     -9.417E-17   AT NODE       1888   DOF  2
   INSTANCE: PLATE-1                                                                         
  CORRESPONDING RESIDUAL FORCE     -9.417E-17
 LARGEST INCREMENT OF DISP.         2.003E-05   AT NODE       2021   DOF  2
   INSTANCE: PLATE-1                                                                         
 LARGEST CORRECTION TO DISP.       -3.072E-08   AT NODE       1524   DOF  1
   INSTANCE: PLATE-1                                                                         
          THE FORCE     EQUILIBRIUM RESPONSE WAS LINEAR IN THIS INCREMENT

 AVERAGE MOMENT                     1.272E-06   TIME AVG. MOMENT      1.054E-06
 LARGEST SCALED RESIDUAL MOMENT    -1.418E-09   AT NODE        499   DOF  4
   INSTANCE: PLATE-1                                                                         
  CORRESPONDING RESIDUAL MOMENT    -1.418E-09
 LARGEST INCREMENT OF ROTATION      1.157E-04   AT NODE       1203   DOF  4
   INSTANCE: PLATE-1                                                                         
 LARGEST CORRECTION TO ROTATION    -1.574E-07   AT NODE       1203   DOF  4
   INSTANCE: PLATE-1                                                                         
          THE MOMENT    EQUILIBRIUM EQUATIONS HAVE CONVERGED

 AVERAGE HEAT FLUX                  5.641E-08   TIME AVG. HEAT FLUX   1.334E-06
 LARGEST RESIDUAL HEAT FLUX         3.625E-17   AT NODE      13672   DOF 11
   INSTANCE: PLATE-1                                                                         
 LARGEST INCREMENT OF TEMP.         6.221E-05   AT NODE       1028   DOF 11
   INSTANCE: PLATE-1                                                                         
 LARGEST CORRECTION TO TEMP.       -1.136E-07   AT NODE       1029   DOF 11
   INSTANCE: PLATE-1                                                                         
          THE HEAT FLUX EQUILIBRIUM RESPONSE WAS LINEAR IN THIS INCREMENT

 ITERATION SUMMARY FOR THE INCREMENT:   1 TOTAL ITERATIONS, OF WHICH
   0 ARE SEVERE DISCONTINUITY ITERATIONS AND  1 ARE EQUILIBRIUM ITERATIONS.

 TIME INCREMENT COMPLETED  2.000E+04,  FRACTION OF STEP COMPLETED  0.998    
 STEP TIME COMPLETED       9.980E+06,  TOTAL TIME COMPLETED        9.980E+06


  INCREMENT   500 STARTS. ATTEMPT NUMBER  1, TIME INCREMENT  2.000E+04
 
	UNSYMMETRIC NEW DIRECT SPARSE SOLVER RUNNING ON
 	1 HOST x 1 MPI RANK PER HOST x 8 THREADS PER RANK
        NUMBER OF EQUATIONS:  131600
        NUMBER OF RHS:        1
        NUMBER OF FLOPS:      2.553e+11
        SOLVER ELAPSED TIME:  2.1s

               CONVERGENCE CHECKS FOR EQUILIBRIUM ITERATION     1


 AVERAGE FORCE                      3.020E-07   TIME AVG. FORCE       5.402E-04
 LARGEST SCALED RESIDUAL FORCE      1.100E-16   AT NODE       1352   DOF  2
   INSTANCE: PLATE-1                                                                         
  CORRESPONDING RESIDUAL FORCE      1.100E-16
 LARGEST INCREMENT OF DISP.         2.003E-05   AT NODE       2021   DOF  2
   INSTANCE: PLATE-1                                                                         
 LARGEST CORRECTION TO DISP.       -3.067E-08   AT NODE       1524   DOF  1
   INSTANCE: PLATE-1                                                                         
          THE FORCE     EQUILIBRIUM RESPONSE WAS LINEAR IN THIS INCREMENT

 AVERAGE MOMENT                     1.272E-06   TIME AVG. MOMENT      1.055E-06
 LARGEST SCALED RESIDUAL MOMENT    -1.404E-09   AT NODE        499   DOF  4
   INSTANCE: PLATE-1                                                                         
  CORRESPONDING RESIDUAL MOMENT    -1.404E-09
 LARGEST INCREMENT OF ROTATION      1.156E-04   AT NODE       1203   DOF  4
   INSTANCE: PLATE-1                                                                         
 LARGEST CORRECTION TO ROTATION    -1.575E-07   AT NODE       1203   DOF  4
   INSTANCE: PLATE-1                                                                         
          THE MOMENT    EQUILIBRIUM EQUATIONS HAVE CONVERGED

 AVERAGE HEAT FLUX                  5.632E-08   TIME AVG. HEAT FLUX   1.331E-06
 LARGEST RESIDUAL HEAT FLUX        -3.468E-17   AT NODE      13682   DOF 11
   INSTANCE: PLATE-1                                                                         
 LARGEST INCREMENT OF TEMP.         6.230E-05   AT NODE       1028   DOF 11
   INSTANCE: PLATE-1                                                                         
 LARGEST CORRECTION TO TEMP.       -1.129E-07   AT NODE       1029   DOF 11
   INSTANCE: PLATE-1                                                                         
          THE HEAT FLUX EQUILIBRIUM RESPONSE WAS LINEAR IN THIS INCREMENT

 ITERATION SUMMARY FOR THE INCREMENT:   1 TOTAL ITERATIONS, OF WHICH
   0 ARE SEVERE DISCONTINUITY ITERATIONS AND  1 ARE EQUILIBRIUM ITERATIONS.

 TIME INCREMENT COMPLETED  2.000E+04,  FRACTION OF STEP COMPLETED   1.00    
 STEP TIME COMPLETED       1.000E+07,  TOTAL TIME COMPLETED        1.000E+07


          THE ANALYSIS HAS BEEN COMPLETED



     ANALYSIS SUMMARY:
     TOTAL OF        500  INCREMENTS
                       0  CUTBACKS IN AUTOMATIC INCREMENTATION
                    1049  ITERATIONS INCLUDING CONTACT ITERATIONS IF PRESENT
                    1049  PASSES THROUGH THE EQUATION SOLVER OF WHICH 
                    1049  INVOLVE MATRIX DECOMPOSITION, INCLUDING
                       0  DECOMPOSITION(S) OF THE MASS MATRIX
                       1  REORDERING OF EQUATIONS TO MINIMIZE WAVEFRONT
                       0  ADDITIONAL RESIDUAL EVALUATIONS FOR LINE SEARCHES
                       0  ADDITIONAL OPERATOR EVALUATIONS FOR LINE SEARCHES
                       3  WARNING MESSAGES DURING USER INPUT PROCESSING
                     137  WARNING MESSAGES DURING ANALYSIS
                       0  ANALYSIS WARNINGS ARE NUMERICAL PROBLEM MESSAGES
                       0  ANALYSIS WARNINGS ARE NEGATIVE EIGENVALUE MESSAGES
                       0  ERROR MESSAGES



     JOB TIME SUMMARY
       USER TIME (SEC)      =     7.30E+03
       SYSTEM TIME (SEC)    =     1.93E+02
       TOTAL CPU TIME (SEC) =     7.49E+03
       WALLCLOCK TIME (SEC) =         3136
       MEMORY PEAK (GB)     =            1
