 Abaqus/Standard 2023.HF4                  DATE 05-Sep-2024 TIME 10:45:05
 SUMMARY OF JOB INFORMATION:
 STEP  INC ATT SEVERE EQUIL TOTAL  TOTAL      STEP       INC OF       DOF    IF
               DISCON ITERS ITERS  TIME/    TIME/LPF    TIME/LPF    MONITOR RIKS
               ITERS               FREQ
   1     1   1     0     1     1  2.00e+04   2.00e+04   2.000e+04 
   1     2   1     0     1     1  4.00e+04   4.00e+04   2.000e+04 
   1     3   1     0     1     1  6.00e+04   6.00e+04   2.000e+04 
   1     4   1     0     1     1  8.00e+04   8.00e+04   2.000e+04 
   1     5   1     0     1     1  1.00e+05   1.00e+05   2.000e+04 
   1     6   1     0     1     1  1.20e+05   1.20e+05   2.000e+04 
   1     7   1     0     1     1  1.40e+05   1.40e+05   2.000e+04 
   1     8   1     0     1     1  1.60e+05   1.60e+05   2.000e+04 
   1     9   1     0     1     1  1.80e+05   1.80e+05   2.000e+04 
   1    10   1     0     1     1  2.00e+05   2.00e+05   2.000e+04 
   1    11   1     0     1     1  2.20e+05   2.20e+05   2.000e+04 
   1    12   1     0     1     1  2.40e+05   2.40e+05   2.000e+04 
   1    13   1     0     1     1  2.60e+05   2.60e+05   2.000e+04 
   1    14   1     0     1     1  2.80e+05   2.80e+05   2.000e+04 
   1    15   1     0     1     1  3.00e+05   3.00e+05   2.000e+04 
   1    16   1     0     1     1  3.20e+05   3.20e+05   2.000e+04 
   1    17   1     0     1     1  3.40e+05   3.40e+05   2.000e+04 
   1    18   1     0     1     1  3.60e+05   3.60e+05   2.000e+04 
   1    19   1     0     1     1  3.80e+05   3.80e+05   2.000e+04 
   1    20   1     0     1     1  4.00e+05   4.00e+05   2.000e+04 
   1    21   1     0     1     1  4.20e+05   4.20e+05   2.000e+04 
   1    22   1     0     1     1  4.40e+05   4.40e+05   2.000e+04 
   1    23   1     0     1     1  4.60e+05   4.60e+05   2.000e+04 
   1    24   1     0     1     1  4.80e+05   4.80e+05   2.000e+04 
   1    25   1     0     1     1  5.00e+05   5.00e+05   2.000e+04 
   1    26   1     0     1     1  5.20e+05   5.20e+05   2.000e+04 
   1    27   1     0     1     1  5.40e+05   5.40e+05   2.000e+04 
   1    28   1     0     1     1  5.60e+05   5.60e+05   2.000e+04 
   1    29   1     0     1     1  5.80e+05   5.80e+05   2.000e+04 
   1    30   1     0     1     1  6.00e+05   6.00e+05   2.000e+04 
   1    31   1     0     1     1  6.20e+05   6.20e+05   2.000e+04 
   1    32   1     0     1     1  6.40e+05   6.40e+05   2.000e+04 
   1    33   1     0     1     1  6.60e+05   6.60e+05   2.000e+04 
   1    34   1     0     1     1  6.80e+05   6.80e+05   2.000e+04 
   1    35   1     0     1     1  7.00e+05   7.00e+05   2.000e+04 
   1    36   1     0     1     1  7.20e+05   7.20e+05   2.000e+04 
   1    37   1     0     1     1  7.40e+05   7.40e+05   2.000e+04 
   1    38   1     0     1     1  7.60e+05   7.60e+05   2.000e+04 
   1    39   1     0     1     1  7.80e+05   7.80e+05   2.000e+04 
   1    40   1     0     1     1  8.00e+05   8.00e+05   2.000e+04 
   1    41   1     0     1     1  8.20e+05   8.20e+05   2.000e+04 
   1    42   1     0     1     1  8.40e+05   8.40e+05   2.000e+04 
   1    43   1     0     1     1  8.60e+05   8.60e+05   2.000e+04 
   1    44   1     0     1     1  8.80e+05   8.80e+05   2.000e+04 
   1    45   1     0     1     1  9.00e+05   9.00e+05   2.000e+04 
   1    46   1     0     1     1  9.20e+05   9.20e+05   2.000e+04 
   1    47   1     0     1     1  9.40e+05   9.40e+05   2.000e+04 
   1    48   1     0     1     1  9.60e+05   9.60e+05   2.000e+04 
   1    49   1     0     1     1  9.80e+05   9.80e+05   2.000e+04 
   1    50   1     0     1     1  1.00e+06   1.00e+06   2.000e+04 
   1    51   1     0     1     1  1.02e+06   1.02e+06   2.000e+04 
   1    52   1     0     1     1  1.04e+06   1.04e+06   2.000e+04 
   1    53   1     0     1     1  1.06e+06   1.06e+06   2.000e+04 
   1    54   1     0     1     1  1.08e+06   1.08e+06   2.000e+04 
   1    55   1     0     1     1  1.10e+06   1.10e+06   2.000e+04 
   1    56   1     0     1     1  1.12e+06   1.12e+06   2.000e+04 
   1    57   1     0     1     1  1.14e+06   1.14e+06   2.000e+04 
   1    58   1     0     1     1  1.16e+06   1.16e+06   2.000e+04 
   1    59   1     0     1     1  1.18e+06   1.18e+06   2.000e+04 
   1    60   1     0     1     1  1.20e+06   1.20e+06   2.000e+04 
   1    61   1     0     1     1  1.22e+06   1.22e+06   2.000e+04 
   1    62   1     0     1     1  1.24e+06   1.24e+06   2.000e+04 
   1    63   1     0     1     1  1.26e+06   1.26e+06   2.000e+04 
   1    64   1     0     1     1  1.28e+06   1.28e+06   2.000e+04 
   1    65   1     0     1     1  1.30e+06   1.30e+06   2.000e+04 
   1    66   1     0     1     1  1.32e+06   1.32e+06   2.000e+04 
   1    67   1     0     1     1  1.34e+06   1.34e+06   2.000e+04 
   1    68   1     0     1     1  1.36e+06   1.36e+06   2.000e+04 
   1    69   1     0     1     1  1.38e+06   1.38e+06   2.000e+04 
   1    70   1     0     1     1  1.40e+06   1.40e+06   2.000e+04 
   1    71   1     0     1     1  1.42e+06   1.42e+06   2.000e+04 
   1    72   1     0     1     1  1.44e+06   1.44e+06   2.000e+04 
   1    73   1     0     1     1  1.46e+06   1.46e+06   2.000e+04 
   1    74   1     0     1     1  1.48e+06   1.48e+06   2.000e+04 
   1    75   1     0     1     1  1.50e+06   1.50e+06   2.000e+04 
   1    76   1     0     1     1  1.52e+06   1.52e+06   2.000e+04 
   1    77   1     0     1     1  1.54e+06   1.54e+06   2.000e+04 
   1    78   1     0     1     1  1.56e+06   1.56e+06   2.000e+04 
   1    79   1     0     1     1  1.58e+06   1.58e+06   2.000e+04 
   1    80   1     0     1     1  1.60e+06   1.60e+06   2.000e+04 
   1    81   1     0     1     1  1.62e+06   1.62e+06   2.000e+04 
   1    82   1     0     1     1  1.64e+06   1.64e+06   2.000e+04 
   1    83   1     0     1     1  1.66e+06   1.66e+06   2.000e+04 
   1    84   1     0     1     1  1.68e+06   1.68e+06   2.000e+04 
   1    85   1     0     1     1  1.70e+06   1.70e+06   2.000e+04 
   1    86   1     0     1     1  1.72e+06   1.72e+06   2.000e+04 
   1    87   1     0     1     1  1.74e+06   1.74e+06   2.000e+04 
   1    88   1     0     1     1  1.76e+06   1.76e+06   2.000e+04 
   1    89   1     0     1     1  1.78e+06   1.78e+06   2.000e+04 
   1    90   1     0     1     1  1.80e+06   1.80e+06   2.000e+04 
   1    91   1     0     1     1  1.82e+06   1.82e+06   2.000e+04 
   1    92   1     0     1     1  1.84e+06   1.84e+06   2.000e+04 
   1    93   1     0     1     1  1.86e+06   1.86e+06   2.000e+04 
   1    94   1     0     1     1  1.88e+06   1.88e+06   2.000e+04 
   1    95   1     0     1     1  1.90e+06   1.90e+06   2.000e+04 
   1    96   1     0     1     1  1.92e+06   1.92e+06   2.000e+04 
   1    97   1     0     1     1  1.94e+06   1.94e+06   2.000e+04 
   1    98   1     0     1     1  1.96e+06   1.96e+06   2.000e+04 
   1    99   1     0     1     1  1.98e+06   1.98e+06   2.000e+04 
   1   100   1     0     1     1  2.00e+06   2.00e+06   2.000e+04 
   1   101   1     0     1     1  2.02e+06   2.02e+06   2.000e+04 
   1   102   1     0     1     1  2.04e+06   2.04e+06   2.000e+04 
   1   103   1     0     1     1  2.06e+06   2.06e+06   2.000e+04 
   1   104   1     0     1     1  2.08e+06   2.08e+06   2.000e+04 
   1   105   1     0     1     1  2.10e+06   2.10e+06   2.000e+04 
   1   106   1     0     1     1  2.12e+06   2.12e+06   2.000e+04 
   1   107   1     0     1     1  2.14e+06   2.14e+06   2.000e+04 
   1   108   1     0     1     1  2.16e+06   2.16e+06   2.000e+04 
   1   109   1     0     1     1  2.18e+06   2.18e+06   2.000e+04 
   1   110   1     0     1     1  2.20e+06   2.20e+06   2.000e+04 
   1   111   1     0     1     1  2.22e+06   2.22e+06   2.000e+04 
   1   112   1     0     1     1  2.24e+06   2.24e+06   2.000e+04 
   1   113   1     0     1     1  2.26e+06   2.26e+06   2.000e+04 
   1   114   1     0     1     1  2.28e+06   2.28e+06   2.000e+04 
   1   115   1     0     1     1  2.30e+06   2.30e+06   2.000e+04 
   1   116   1     0     1     1  2.32e+06   2.32e+06   2.000e+04 
   1   117   1     0     1     1  2.34e+06   2.34e+06   2.000e+04 
   1   118   1     0     1     1  2.36e+06   2.36e+06   2.000e+04 
   1   119   1     0     1     1  2.38e+06   2.38e+06   2.000e+04 
   1   120   1     0     1     1  2.40e+06   2.40e+06   2.000e+04 
   1   121   1     0     1     1  2.42e+06   2.42e+06   2.000e+04 
   1   122   1     0     1     1  2.44e+06   2.44e+06   2.000e+04 
   1   123   1     0     1     1  2.46e+06   2.46e+06   2.000e+04 
   1   124   1     0     2     2  2.48e+06   2.48e+06   2.000e+04 
   1   125   1     0     2     2  2.50e+06   2.50e+06   2.000e+04 
   1   126   1     0     2     2  2.52e+06   2.52e+06   2.000e+04 
   1   127   1     0     2     2  2.54e+06   2.54e+06   2.000e+04 
   1   128   1     0     2     2  2.56e+06   2.56e+06   2.000e+04 
   1   129   1     0     2     2  2.58e+06   2.58e+06   2.000e+04 
   1   130   1     0     2     2  2.60e+06   2.60e+06   2.000e+04 
   1   131   1     0     2     2  2.62e+06   2.62e+06   2.000e+04 
   1   132   1     0     2     2  2.64e+06   2.64e+06   2.000e+04 
   1   133   1     0     2     2  2.66e+06   2.66e+06   2.000e+04 
   1   134   1     0     2     2  2.68e+06   2.68e+06   2.000e+04 
   1   135   1     0     2     2  2.70e+06   2.70e+06   2.000e+04 
   1   136   1     0     2     2  2.72e+06   2.72e+06   2.000e+04 
   1   137   1     0     2     2  2.74e+06   2.74e+06   2.000e+04 
   1   138   1     0     2     2  2.76e+06   2.76e+06   2.000e+04 
   1   139   1     0     2     2  2.78e+06   2.78e+06   2.000e+04 
   1   140   1     0     2     2  2.80e+06   2.80e+06   2.000e+04 
   1   141   1     0     2     2  2.82e+06   2.82e+06   2.000e+04 
   1   142   1     0     2     2  2.84e+06   2.84e+06   2.000e+04 
   1   143   1     0     2     2  2.86e+06   2.86e+06   2.000e+04 
   1   144   1     0     2     2  2.88e+06   2.88e+06   2.000e+04 
   1   145   1     0     2     2  2.90e+06   2.90e+06   2.000e+04 
   1   146   1     0     2     2  2.92e+06   2.92e+06   2.000e+04 
   1   147   1     0     2     2  2.94e+06   2.94e+06   2.000e+04 
   1   148   1     0     2     2  2.96e+06   2.96e+06   2.000e+04 
   1   149   1     0     2     2  2.98e+06   2.98e+06   2.000e+04 
   1   150   1     0     2     2  3.00e+06   3.00e+06   2.000e+04 
   1   151   1     0     2     2  3.02e+06   3.02e+06   2.000e+04 
   1   152   1     0     2     2  3.04e+06   3.04e+06   2.000e+04 
   1   153   1     0     2     2  3.06e+06   3.06e+06   2.000e+04 
   1   154   1     0     2     2  3.08e+06   3.08e+06   2.000e+04 
   1   155   1     0     2     2  3.10e+06   3.10e+06   2.000e+04 
   1   156   1     0     2     2  3.12e+06   3.12e+06   2.000e+04 
   1   157   1     0     2     2  3.14e+06   3.14e+06   2.000e+04 
   1   158   1     0     2     2  3.16e+06   3.16e+06   2.000e+04 
   1   159   1     0     2     2  3.18e+06   3.18e+06   2.000e+04 
   1   160   1     0     2     2  3.20e+06   3.20e+06   2.000e+04 
   1   161   1     0     2     2  3.22e+06   3.22e+06   2.000e+04 
   1   162   1     0     2     2  3.24e+06   3.24e+06   2.000e+04 
   1   163   1     0     2     2  3.26e+06   3.26e+06   2.000e+04 
   1   164   1     0     2     2  3.28e+06   3.28e+06   2.000e+04 
   1   165   1     0     2     2  3.30e+06   3.30e+06   2.000e+04 
   1   166   1     0     2     2  3.32e+06   3.32e+06   2.000e+04 
   1   167   1     0     2     2  3.34e+06   3.34e+06   2.000e+04 
   1   168   1     0     2     2  3.36e+06   3.36e+06   2.000e+04 
   1   169   1     0     2     2  3.38e+06   3.38e+06   2.000e+04 
   1   170   1     0     2     2  3.40e+06   3.40e+06   2.000e+04 
   1   171   1     0     2     2  3.42e+06   3.42e+06   2.000e+04 
   1   172   1     0     2     2  3.44e+06   3.44e+06   2.000e+04 
   1   173   1     0     2     2  3.46e+06   3.46e+06   2.000e+04 
   1   174   1     0     2     2  3.48e+06   3.48e+06   2.000e+04 
   1   175   1     0     2     2  3.50e+06   3.50e+06   2.000e+04 
   1   176   1     0     2     2  3.52e+06   3.52e+06   2.000e+04 
   1   177   1     0     2     2  3.54e+06   3.54e+06   2.000e+04 
   1   178   1     0     2     2  3.56e+06   3.56e+06   2.000e+04 
   1   179   1     0     2     2  3.58e+06   3.58e+06   2.000e+04 
   1   180   1     0     2     2  3.60e+06   3.60e+06   2.000e+04 
   1   181   1     0     2     2  3.62e+06   3.62e+06   2.000e+04 
   1   182   1     0     2     2  3.64e+06   3.64e+06   2.000e+04 
   1   183   1     0     3     3  3.66e+06   3.66e+06   2.000e+04 
   1   184   1     0    10    10  3.68e+06   3.68e+06   2.000e+04 
   1   185   1     0    11    11  3.70e+06   3.70e+06   2.000e+04 
   1   186   1     0    12    12  3.72e+06   3.72e+06   2.000e+04 
   1   187   1     0    16    16  3.74e+06   3.74e+06   2.000e+04 
   1   188   1     0    16    16  3.76e+06   3.76e+06   2.000e+04 
   1   189   1     0    15    15  3.78e+06   3.78e+06   2.000e+04 
   1   190   1     0    13    13  3.80e+06   3.80e+06   2.000e+04 
   1   191   1     0    11    11  3.82e+06   3.82e+06   2.000e+04 
   1   192   1     0    10    10  3.84e+06   3.84e+06   2.000e+04 
   1   193   1     0    10    10  3.86e+06   3.86e+06   2.000e+04 
   1   194   1     0    10    10  3.88e+06   3.88e+06   2.000e+04 
   1   195   1     0    10    10  3.90e+06   3.90e+06   2.000e+04 
   1   196   1     0     8     8  3.92e+06   3.92e+06   2.000e+04 
   1   197   1     0    10    10  3.94e+06   3.94e+06   2.000e+04 
   1   198   1     0    10    10  3.96e+06   3.96e+06   2.000e+04 
   1   199   1     0     8     8  3.98e+06   3.98e+06   2.000e+04 
   1   200   1     0     8     8  4.00e+06   4.00e+06   2.000e+04 
   1   201   1     0     7     7  4.02e+06   4.02e+06   2.000e+04 
   1   202   1     0     7     7  4.04e+06   4.04e+06   2.000e+04 
   1   203   1     0     6     6  4.06e+06   4.06e+06   2.000e+04 
   1   204   1     0     6     6  4.08e+06   4.08e+06   2.000e+04 
   1   205   1     0     6     6  4.10e+06   4.10e+06   2.000e+04 
   1   206   1     0     6     6  4.12e+06   4.12e+06   2.000e+04 
   1   207   1     0     5     5  4.14e+06   4.14e+06   2.000e+04 
   1   208   1     0     6     6  4.16e+06   4.16e+06   2.000e+04 
   1   209   1     0     5     5  4.18e+06   4.18e+06   2.000e+04 
   1   210   1     0     5     5  4.20e+06   4.20e+06   2.000e+04 
   1   211   1     0     5     5  4.22e+06   4.22e+06   2.000e+04 
   1   212   1     0     5     5  4.24e+06   4.24e+06   2.000e+04 
   1   213   1     0     5     5  4.26e+06   4.26e+06   2.000e+04 
   1   214   1     0     4     4  4.28e+06   4.28e+06   2.000e+04 
   1   215   1     0     4     4  4.30e+06   4.30e+06   2.000e+04 
   1   216   1     0     3     3  4.32e+06   4.32e+06   2.000e+04 
   1   217   1     0     3     3  4.34e+06   4.34e+06   2.000e+04 
   1   218   1     0     3     3  4.36e+06   4.36e+06   2.000e+04 
   1   219   1     0     7     7  4.38e+06   4.38e+06   2.000e+04 
   1   220   1     0     8     8  4.40e+06   4.40e+06   2.000e+04 
   1   221   1     0     9     9  4.42e+06   4.42e+06   2.000e+04 
   1   222   1     0    10    10  4.44e+06   4.44e+06   2.000e+04 
   1   223   1     0    10    10  4.46e+06   4.46e+06   2.000e+04 
   1   224   1     0     6     6  4.48e+06   4.48e+06   2.000e+04 
   1   225   1     0    10    10  4.50e+06   4.50e+06   2.000e+04 
   1   226   1     0    10    10  4.52e+06   4.52e+06   2.000e+04 
   1   227   1     0    10    10  4.54e+06   4.54e+06   2.000e+04 
   1   228   1     0    10    10  4.56e+06   4.56e+06   2.000e+04 
   1   229   1     0    10    10  4.58e+06   4.58e+06   2.000e+04 
   1   230   1     0     9     9  4.60e+06   4.60e+06   2.000e+04 
   1   231   1     0     3     3  4.62e+06   4.62e+06   2.000e+04 
   1   232   1     0     3     3  4.64e+06   4.64e+06   2.000e+04 
   1   233   1     0     1     1  4.66e+06   4.66e+06   2.000e+04 
   1   234   1     0     2     2  4.68e+06   4.68e+06   2.000e+04 
   1   235   1     0     1     1  4.70e+06   4.70e+06   2.000e+04 
   1   236   1     0     2     2  4.72e+06   4.72e+06   2.000e+04 
   1   237   1     0     1     1  4.74e+06   4.74e+06   2.000e+04 
   1   238   1     0     1     1  4.76e+06   4.76e+06   2.000e+04 
   1   239   1     0     2     2  4.78e+06   4.78e+06   2.000e+04 
   1   240   1     0     4     4  4.80e+06   4.80e+06   2.000e+04 
   1   241   1     0    10    10  4.82e+06   4.82e+06   2.000e+04 
   1   242   1     0    10    10  4.84e+06   4.84e+06   2.000e+04 
   1   243   1     0    10    10  4.86e+06   4.86e+06   2.000e+04 
   1   244   1     0    10    10  4.88e+06   4.88e+06   2.000e+04 
   1   245   1     0     9     9  4.90e+06   4.90e+06   2.000e+04 
   1   246   1     0     1     1  4.92e+06   4.92e+06   2.000e+04 
   1   247   1     0    11    11  4.94e+06   4.94e+06   2.000e+04 
   1   248   1     0     5     5  4.96e+06   4.96e+06   2.000e+04 
   1   249   1     0     1     1  4.98e+06   4.98e+06   2.000e+04 
   1   250   1     0     2     2  5.00e+06   5.00e+06   2.000e+04 
   1   251   1     0     5     5  5.02e+06   5.02e+06   2.000e+04 
   1   252   1     0     3     3  5.04e+06   5.04e+06   2.000e+04 
   1   253   1     0     2     2  5.06e+06   5.06e+06   2.000e+04 
   1   254   1     0     3     3  5.08e+06   5.08e+06   2.000e+04 
   1   255   1     0     2     2  5.10e+06   5.10e+06   2.000e+04 
   1   256   1     0     2     2  5.12e+06   5.12e+06   2.000e+04 
   1   257   1     0     3     3  5.14e+06   5.14e+06   2.000e+04 
   1   258   1     0     2     2  5.16e+06   5.16e+06   2.000e+04 
   1   259   1     0     2     2  5.18e+06   5.18e+06   2.000e+04 
   1   260   1     0     2     2  5.20e+06   5.20e+06   2.000e+04 
   1   261   1     0     2     2  5.22e+06   5.22e+06   2.000e+04 
   1   262   1     0     3     3  5.24e+06   5.24e+06   2.000e+04 
   1   263   1     0    10    10  5.26e+06   5.26e+06   2.000e+04 
   1   264   1     0     7     7  5.28e+06   5.28e+06   2.000e+04 
   1   265   1     0     2     2  5.30e+06   5.30e+06   2.000e+04 
   1   266   1     0     1     1  5.32e+06   5.32e+06   2.000e+04 
   1   267   1     0     2     2  5.34e+06   5.34e+06   2.000e+04 
   1   268   1     0     4     4  5.36e+06   5.36e+06   2.000e+04 
   1   269   1     0     3     3  5.38e+06   5.38e+06   2.000e+04 
   1   270   1     0     3     3  5.40e+06   5.40e+06   2.000e+04 
   1   271   1     0     3     3  5.42e+06   5.42e+06   2.000e+04 
   1   272   1     0     2     2  5.44e+06   5.44e+06   2.000e+04 
   1   273   1     0     2     2  5.46e+06   5.46e+06   2.000e+04 
   1   274   1     0     2     2  5.48e+06   5.48e+06   2.000e+04 
   1   275   1     0     2     2  5.50e+06   5.50e+06   2.000e+04 
   1   276   1     0     2     2  5.52e+06   5.52e+06   2.000e+04 
   1   277   1     0     2     2  5.54e+06   5.54e+06   2.000e+04 
   1   278   1     0     2     2  5.56e+06   5.56e+06   2.000e+04 
   1   279   1     0     2     2  5.58e+06   5.58e+06   2.000e+04 
   1   280   1     0     1     1  5.60e+06   5.60e+06   2.000e+04 
   1   281   1     0     2     2  5.62e+06   5.62e+06   2.000e+04 
   1   282   1     0     2     2  5.64e+06   5.64e+06   2.000e+04 
   1   283   1     0     2     2  5.66e+06   5.66e+06   2.000e+04 
   1   284   1     0     1     1  5.68e+06   5.68e+06   2.000e+04 
   1   285   1     0     2     2  5.70e+06   5.70e+06   2.000e+04 
   1   286   1     0     2     2  5.72e+06   5.72e+06   2.000e+04 
   1   287   1     0     2     2  5.74e+06   5.74e+06   2.000e+04 
   1   288   1     0     1     1  5.76e+06   5.76e+06   2.000e+04 
   1   289   1     0     2     2  5.78e+06   5.78e+06   2.000e+04 
   1   290   1     0     2     2  5.80e+06   5.80e+06   2.000e+04 
   1   291   1     0     1     1  5.82e+06   5.82e+06   2.000e+04 
   1   292   1     0     2     2  5.84e+06   5.84e+06   2.000e+04 
   1   293   1     0     2     2  5.86e+06   5.86e+06   2.000e+04 
   1   294   1     0     1     1  5.88e+06   5.88e+06   2.000e+04 
   1   295   1     0     2     2  5.90e+06   5.90e+06   2.000e+04 
   1   296   1     0     1     1  5.92e+06   5.92e+06   2.000e+04 
   1   297   1     0     2     2  5.94e+06   5.94e+06   2.000e+04 
   1   298   1     0     1     1  5.96e+06   5.96e+06   2.000e+04 
   1   299   1     0     2     2  5.98e+06   5.98e+06   2.000e+04 
   1   300   1     0     1     1  6.00e+06   6.00e+06   2.000e+04 
   1   301   1     0     2     2  6.02e+06   6.02e+06   2.000e+04 
   1   302   1     0     1     1  6.04e+06   6.04e+06   2.000e+04 
   1   303   1     0     2     2  6.06e+06   6.06e+06   2.000e+04 
   1   304   1     0     1     1  6.08e+06   6.08e+06   2.000e+04 
   1   305   1     0     2     2  6.10e+06   6.10e+06   2.000e+04 
   1   306   1     0     1     1  6.12e+06   6.12e+06   2.000e+04 
   1   307   1     0     1     1  6.14e+06   6.14e+06   2.000e+04 
   1   308   1     0     2     2  6.16e+06   6.16e+06   2.000e+04 
   1   309   1     0     1     1  6.18e+06   6.18e+06   2.000e+04 
   1   310   1     0     2     2  6.20e+06   6.20e+06   2.000e+04 
   1   311   1     0     1     1  6.22e+06   6.22e+06   2.000e+04 
   1   312   1     0     1     1  6.24e+06   6.24e+06   2.000e+04 
   1   313   1     0     2     2  6.26e+06   6.26e+06   2.000e+04 
   1   314   1     0     1     1  6.28e+06   6.28e+06   2.000e+04 
   1   315   1     0     1     1  6.30e+06   6.30e+06   2.000e+04 
   1   316   1     0     2     2  6.32e+06   6.32e+06   2.000e+04 
   1   317   1     0     1     1  6.34e+06   6.34e+06   2.000e+04 
   1   318   1     0     1     1  6.36e+06   6.36e+06   2.000e+04 
   1   319   1     0     1     1  6.38e+06   6.38e+06   2.000e+04 
   1   320   1     0     2     2  6.40e+06   6.40e+06   2.000e+04 
   1   321   1     0     1     1  6.42e+06   6.42e+06   2.000e+04 
   1   322   1     0     1     1  6.44e+06   6.44e+06   2.000e+04 
   1   323   1     0     1     1  6.46e+06   6.46e+06   2.000e+04 
   1   324   1     0     2     2  6.48e+06   6.48e+06   2.000e+04 
   1   325   1     0     1     1  6.50e+06   6.50e+06   2.000e+04 
   1   326   1     0     1     1  6.52e+06   6.52e+06   2.000e+04 
   1   327   1     0     1     1  6.54e+06   6.54e+06   2.000e+04 
   1   328   1     0     1     1  6.56e+06   6.56e+06   2.000e+04 
   1   329   1     0     2     2  6.58e+06   6.58e+06   2.000e+04 
   1   330   1     0     1     1  6.60e+06   6.60e+06   2.000e+04 
   1   331   1     0     1     1  6.62e+06   6.62e+06   2.000e+04 
   1   332   1     0     1     1  6.64e+06   6.64e+06   2.000e+04 
   1   333   1     0     1     1  6.66e+06   6.66e+06   2.000e+04 
   1   334   1     0     1     1  6.68e+06   6.68e+06   2.000e+04 
   1   335   1     0     2     2  6.70e+06   6.70e+06   2.000e+04 
   1   336   1     0     1     1  6.72e+06   6.72e+06   2.000e+04 
   1   337   1     0     1     1  6.74e+06   6.74e+06   2.000e+04 
   1   338   1     0     1     1  6.76e+06   6.76e+06   2.000e+04 
   1   339   1     0     1     1  6.78e+06   6.78e+06   2.000e+04 
   1   340   1     0     1     1  6.80e+06   6.80e+06   2.000e+04 
   1   341   1     0     1     1  6.82e+06   6.82e+06   2.000e+04 
   1   342   1     0     1     1  6.84e+06   6.84e+06   2.000e+04 
   1   343   1     0     2     2  6.86e+06   6.86e+06   2.000e+04 
   1   344   1     0     1     1  6.88e+06   6.88e+06   2.000e+04 
   1   345   1     0     1     1  6.90e+06   6.90e+06   2.000e+04 
   1   346   1     0     1     1  6.92e+06   6.92e+06   2.000e+04 
   1   347   1     0     1     1  6.94e+06   6.94e+06   2.000e+04 
   1   348   1     0     1     1  6.96e+06   6.96e+06   2.000e+04 
   1   349   1     0     1     1  6.98e+06   6.98e+06   2.000e+04 
   1   350   1     0     1     1  7.00e+06   7.00e+06   2.000e+04 
   1   351   1     0     1     1  7.02e+06   7.02e+06   2.000e+04 
   1   352   1     0     1     1  7.04e+06   7.04e+06   2.000e+04 
   1   353   1     0     1     1  7.06e+06   7.06e+06   2.000e+04 
   1   354   1     0     1     1  7.08e+06   7.08e+06   2.000e+04 
   1   355   1     0     1     1  7.10e+06   7.10e+06   2.000e+04 
   1   356   1     0     1     1  7.12e+06   7.12e+06   2.000e+04 
   1   357   1     0     1     1  7.14e+06   7.14e+06   2.000e+04 
   1   358   1     0     1     1  7.16e+06   7.16e+06   2.000e+04 
   1   359   1     0     1     1  7.18e+06   7.18e+06   2.000e+04 
   1   360   1     0     1     1  7.20e+06   7.20e+06   2.000e+04 
   1   361   1     0     1     1  7.22e+06   7.22e+06   2.000e+04 
   1   362   1     0     1     1  7.24e+06   7.24e+06   2.000e+04 
   1   363   1     0     1     1  7.26e+06   7.26e+06   2.000e+04 
   1   364   1     0     1     1  7.28e+06   7.28e+06   2.000e+04 
   1   365   1     0     1     1  7.30e+06   7.30e+06   2.000e+04 
   1   366   1     0     1     1  7.32e+06   7.32e+06   2.000e+04 
   1   367   1     0     1     1  7.34e+06   7.34e+06   2.000e+04 
   1   368   1     0     1     1  7.36e+06   7.36e+06   2.000e+04 
   1   369   1     0     1     1  7.38e+06   7.38e+06   2.000e+04 
   1   370   1     0     1     1  7.40e+06   7.40e+06   2.000e+04 
   1   371   1     0     1     1  7.42e+06   7.42e+06   2.000e+04 
   1   372   1     0     1     1  7.44e+06   7.44e+06   2.000e+04 
   1   373   1     0     1     1  7.46e+06   7.46e+06   2.000e+04 
   1   374   1     0     1     1  7.48e+06   7.48e+06   2.000e+04 
   1   375   1     0     1     1  7.50e+06   7.50e+06   2.000e+04 
   1   376   1     0     1     1  7.52e+06   7.52e+06   2.000e+04 
   1   377   1     0     1     1  7.54e+06   7.54e+06   2.000e+04 
   1   378   1     0     1     1  7.56e+06   7.56e+06   2.000e+04 
   1   379   1     0     1     1  7.58e+06   7.58e+06   2.000e+04 
   1   380   1     0     1     1  7.60e+06   7.60e+06   2.000e+04 
   1   381   1     0     1     1  7.62e+06   7.62e+06   2.000e+04 
   1   382   1     0     1     1  7.64e+06   7.64e+06   2.000e+04 
   1   383   1     0     1     1  7.66e+06   7.66e+06   2.000e+04 
   1   384   1     0     1     1  7.68e+06   7.68e+06   2.000e+04 
   1   385   1     0     1     1  7.70e+06   7.70e+06   2.000e+04 
   1   386   1     0     1     1  7.72e+06   7.72e+06   2.000e+04 
   1   387   1     0     1     1  7.74e+06   7.74e+06   2.000e+04 
   1   388   1     0     1     1  7.76e+06   7.76e+06   2.000e+04 
   1   389   1     0     1     1  7.78e+06   7.78e+06   2.000e+04 
   1   390   1     0     1     1  7.80e+06   7.80e+06   2.000e+04 
   1   391   1     0     1     1  7.82e+06   7.82e+06   2.000e+04 
   1   392   1     0     1     1  7.84e+06   7.84e+06   2.000e+04 
   1   393   1     0     1     1  7.86e+06   7.86e+06   2.000e+04 
   1   394   1     0     1     1  7.88e+06   7.88e+06   2.000e+04 
   1   395   1     0     1     1  7.90e+06   7.90e+06   2.000e+04 
   1   396   1     0     1     1  7.92e+06   7.92e+06   2.000e+04 
   1   397   1     0     1     1  7.94e+06   7.94e+06   2.000e+04 
   1   398   1     0     1     1  7.96e+06   7.96e+06   2.000e+04 
   1   399   1     0     1     1  7.98e+06   7.98e+06   2.000e+04 
   1   400   1     0     1     1  8.00e+06   8.00e+06   2.000e+04 
   1   401   1     0     1     1  8.02e+06   8.02e+06   2.000e+04 
   1   402   1     0     1     1  8.04e+06   8.04e+06   2.000e+04 
   1   403   1     0     1     1  8.06e+06   8.06e+06   2.000e+04 
   1   404   1     0     1     1  8.08e+06   8.08e+06   2.000e+04 
   1   405   1     0     1     1  8.10e+06   8.10e+06   2.000e+04 
   1   406   1     0     1     1  8.12e+06   8.12e+06   2.000e+04 
   1   407   1     0     1     1  8.14e+06   8.14e+06   2.000e+04 
   1   408   1     0     1     1  8.16e+06   8.16e+06   2.000e+04 
   1   409   1     0     1     1  8.18e+06   8.18e+06   2.000e+04 
   1   410   1     0     1     1  8.20e+06   8.20e+06   2.000e+04 
   1   411   1     0     1     1  8.22e+06   8.22e+06   2.000e+04 
   1   412   1     0     1     1  8.24e+06   8.24e+06   2.000e+04 
   1   413   1     0     1     1  8.26e+06   8.26e+06   2.000e+04 
   1   414   1     0     1     1  8.28e+06   8.28e+06   2.000e+04 
   1   415   1     0     1     1  8.30e+06   8.30e+06   2.000e+04 
   1   416   1     0     1     1  8.32e+06   8.32e+06   2.000e+04 
   1   417   1     0     1     1  8.34e+06   8.34e+06   2.000e+04 
   1   418   1     0     1     1  8.36e+06   8.36e+06   2.000e+04 
   1   419   1     0     1     1  8.38e+06   8.38e+06   2.000e+04 
   1   420   1     0     1     1  8.40e+06   8.40e+06   2.000e+04 
   1   421   1     0     1     1  8.42e+06   8.42e+06   2.000e+04 
   1   422   1     0     1     1  8.44e+06   8.44e+06   2.000e+04 
   1   423   1     0     1     1  8.46e+06   8.46e+06   2.000e+04 
   1   424   1     0     1     1  8.48e+06   8.48e+06   2.000e+04 
   1   425   1     0     1     1  8.50e+06   8.50e+06   2.000e+04 
   1   426   1     0     1     1  8.52e+06   8.52e+06   2.000e+04 
   1   427   1     0     1     1  8.54e+06   8.54e+06   2.000e+04 
   1   428   1     0     1     1  8.56e+06   8.56e+06   2.000e+04 
   1   429   1     0     1     1  8.58e+06   8.58e+06   2.000e+04 
   1   430   1     0     1     1  8.60e+06   8.60e+06   2.000e+04 
   1   431   1     0     1     1  8.62e+06   8.62e+06   2.000e+04 
   1   432   1     0     1     1  8.64e+06   8.64e+06   2.000e+04 
   1   433   1     0     1     1  8.66e+06   8.66e+06   2.000e+04 
   1   434   1     0     1     1  8.68e+06   8.68e+06   2.000e+04 
   1   435   1     0     1     1  8.70e+06   8.70e+06   2.000e+04 
   1   436   1     0     1     1  8.72e+06   8.72e+06   2.000e+04 
   1   437   1     0     1     1  8.74e+06   8.74e+06   2.000e+04 
   1   438   1     0     1     1  8.76e+06   8.76e+06   2.000e+04 
   1   439   1     0     1     1  8.78e+06   8.78e+06   2.000e+04 
   1   440   1     0     1     1  8.80e+06   8.80e+06   2.000e+04 
   1   441   1     0     1     1  8.82e+06   8.82e+06   2.000e+04 
   1   442   1     0     1     1  8.84e+06   8.84e+06   2.000e+04 
   1   443   1     0     1     1  8.86e+06   8.86e+06   2.000e+04 
   1   444   1     0     1     1  8.88e+06   8.88e+06   2.000e+04 
   1   445   1     0     1     1  8.90e+06   8.90e+06   2.000e+04 
   1   446   1     0     1     1  8.92e+06   8.92e+06   2.000e+04 
   1   447   1     0     1     1  8.94e+06   8.94e+06   2.000e+04 
   1   448   1     0     1     1  8.96e+06   8.96e+06   2.000e+04 
   1   449   1     0     1     1  8.98e+06   8.98e+06   2.000e+04 
   1   450   1     0     1     1  9.00e+06   9.00e+06   2.000e+04 
   1   451   1     0     1     1  9.02e+06   9.02e+06   2.000e+04 
   1   452   1     0     1     1  9.04e+06   9.04e+06   2.000e+04 
   1   453   1     0     1     1  9.06e+06   9.06e+06   2.000e+04 
   1   454   1     0     1     1  9.08e+06   9.08e+06   2.000e+04 
   1   455   1     0     1     1  9.10e+06   9.10e+06   2.000e+04 
   1   456   1     0     1     1  9.12e+06   9.12e+06   2.000e+04 
   1   457   1     0     1     1  9.14e+06   9.14e+06   2.000e+04 
   1   458   1     0     1     1  9.16e+06   9.16e+06   2.000e+04 
   1   459   1     0     1     1  9.18e+06   9.18e+06   2.000e+04 
   1   460   1     0     1     1  9.20e+06   9.20e+06   2.000e+04 
   1   461   1     0     1     1  9.22e+06   9.22e+06   2.000e+04 
   1   462   1     0     1     1  9.24e+06   9.24e+06   2.000e+04 
   1   463   1     0     1     1  9.26e+06   9.26e+06   2.000e+04 
   1   464   1     0     1     1  9.28e+06   9.28e+06   2.000e+04 
   1   465   1     0     1     1  9.30e+06   9.30e+06   2.000e+04 
   1   466   1     0     1     1  9.32e+06   9.32e+06   2.000e+04 
   1   467   1     0     1     1  9.34e+06   9.34e+06   2.000e+04 
   1   468   1     0     1     1  9.36e+06   9.36e+06   2.000e+04 
   1   469   1     0     1     1  9.38e+06   9.38e+06   2.000e+04 
   1   470   1     0     1     1  9.40e+06   9.40e+06   2.000e+04 
   1   471   1     0     1     1  9.42e+06   9.42e+06   2.000e+04 
   1   472   1     0     1     1  9.44e+06   9.44e+06   2.000e+04 
   1   473   1     0     1     1  9.46e+06   9.46e+06   2.000e+04 
   1   474   1     0     1     1  9.48e+06   9.48e+06   2.000e+04 
   1   475   1     0     1     1  9.50e+06   9.50e+06   2.000e+04 
   1   476   1     0     1     1  9.52e+06   9.52e+06   2.000e+04 
   1   477   1     0     1     1  9.54e+06   9.54e+06   2.000e+04 
   1   478   1     0     1     1  9.56e+06   9.56e+06   2.000e+04 
   1   479   1     0     1     1  9.58e+06   9.58e+06   2.000e+04 
   1   480   1     0     1     1  9.60e+06   9.60e+06   2.000e+04 
   1   481   1     0     1     1  9.62e+06   9.62e+06   2.000e+04 
   1   482   1     0     1     1  9.64e+06   9.64e+06   2.000e+04 
   1   483   1     0     1     1  9.66e+06   9.66e+06   2.000e+04 
   1   484   1     0     1     1  9.68e+06   9.68e+06   2.000e+04 
   1   485   1     0     1     1  9.70e+06   9.70e+06   2.000e+04 
   1   486   1     0     1     1  9.72e+06   9.72e+06   2.000e+04 
   1   487   1     0     1     1  9.74e+06   9.74e+06   2.000e+04 
   1   488   1     0     1     1  9.76e+06   9.76e+06   2.000e+04 
   1   489   1     0     1     1  9.78e+06   9.78e+06   2.000e+04 
   1   490   1     0     1     1  9.80e+06   9.80e+06   2.000e+04 
   1   491   1     0     1     1  9.82e+06   9.82e+06   2.000e+04 
   1   492   1     0     1     1  9.84e+06   9.84e+06   2.000e+04 
   1   493   1     0     1     1  9.86e+06   9.86e+06   2.000e+04 
   1   494   1     0     1     1  9.88e+06   9.88e+06   2.000e+04 
   1   495   1     0     1     1  9.90e+06   9.90e+06   2.000e+04 
   1   496   1     0     1     1  9.92e+06   9.92e+06   2.000e+04 
   1   497   1     0     1     1  9.94e+06   9.94e+06   2.000e+04 
   1   498   1     0     1     1  9.96e+06   9.96e+06   2.000e+04 
   1   499   1     0     1     1  9.98e+06   9.98e+06   2.000e+04 
   1   500   1     0     1     1  1.00e+07   1.00e+07   2.000e+04 
                          
 THE ANALYSIS HAS COMPLETED SUCCESSFULLY
