 Abaqus/Standard 2023.HF4                  DATE 10-Sep-2024 TIME 14:14:18
 SUMMARY OF JOB INFORMATION:
 STEP  INC ATT SEVERE EQUIL TOTAL  TOTAL      STEP       INC OF       DOF    IF
               DISCON ITERS ITERS  TIME/    TIME/LPF    TIME/LPF    MONITOR RIKS
               ITERS               FREQ
   1     1   1     0     1     1  1.00e+04   1.00e+04   1.000e+04 
   1     2   1     0     1     1  2.00e+04   2.00e+04   1.000e+04 
   1     3   1     0     1     1  3.00e+04   3.00e+04   1.000e+04 
   1     4   1     0     1     1  4.00e+04   4.00e+04   1.000e+04 
   1     5   1     0     1     1  5.00e+04   5.00e+04   1.000e+04 
   1     6   1     0     1     1  6.00e+04   6.00e+04   1.000e+04 
   1     7   1     0     1     1  7.00e+04   7.00e+04   1.000e+04 
   1     8   1     0     1     1  8.00e+04   8.00e+04   1.000e+04 
   1     9   1     0     1     1  9.00e+04   9.00e+04   1.000e+04 
   1    10   1     0     1     1  1.00e+05   1.00e+05   1.000e+04 
   1    11   1     0     1     1  1.10e+05   1.10e+05   1.000e+04 
   1    12   1     0     1     1  1.20e+05   1.20e+05   1.000e+04 
   1    13   1     0     1     1  1.30e+05   1.30e+05   1.000e+04 
   1    14   1     0     1     1  1.40e+05   1.40e+05   1.000e+04 
   1    15   1     0     1     1  1.50e+05   1.50e+05   1.000e+04 
   1    16   1     0     1     1  1.60e+05   1.60e+05   1.000e+04 
   1    17   1     0     1     1  1.70e+05   1.70e+05   1.000e+04 
   1    18   1     0     1     1  1.80e+05   1.80e+05   1.000e+04 
   1    19   1     0     1     1  1.90e+05   1.90e+05   1.000e+04 
   1    20   1     0     1     1  2.00e+05   2.00e+05   1.000e+04 
