 Abaqus/Standard 2023.HF4                  DATE 11-Sep-2024 TIME 16:57:15
 SUMMARY OF JOB INFORMATION:
 STEP  INC ATT SEVERE EQUIL TOTAL  TOTAL      STEP       INC OF       DOF    IF
               DISCON ITERS ITERS  TIME/    TIME/LPF    TIME/LPF    MONITOR RIKS
               ITERS               FREQ
   1     1   1     0     1     1  1.00e+04   1.00e+04   1.000e+04 
   1     2   1     0     1     1  2.00e+04   2.00e+04   1.000e+04 
   1     3   1     0     1     1  3.00e+04   3.00e+04   1.000e+04 
   1     4   1     0     1     1  4.00e+04   4.00e+04   1.000e+04 
