 Abaqus/Standard 2023.HF4                  DATE 12-Aug-2024 TIME 21:12:26
 SUMMARY OF JOB INFORMATION:
 STEP  INC ATT SEVERE EQUIL TOTAL  TOTAL      STEP       INC OF       DOF    IF
               DISCON ITERS ITERS  TIME/    TIME/LPF    TIME/LPF    MONITOR RIKS
               ITERS               FREQ
   1     1   1     0     1     1  1.00e+04   1.00e+04   1.000e+04 
   1     2   1     0     2     2  2.00e+04   2.00e+04   1.000e+04 
   1     3   1     0     1     1  3.00e+04   3.00e+04   1.000e+04 
   1     4   1     0     2     2  4.00e+04   4.00e+04   1.000e+04 
   1     5   1     0     1     1  5.00e+04   5.00e+04   1.000e+04 
   1     6   1     0     2     2  6.00e+04   6.00e+04   1.000e+04 
   1     7   1     0     1     1  7.00e+04   7.00e+04   1.000e+04 
   1     8   1     0     2     2  8.00e+04   8.00e+04   1.000e+04 
   1     9   1     0     1     1  9.00e+04   9.00e+04   1.000e+04 
   1    10   1     0     2     2  1.00e+05   1.00e+05   1.000e+04 
   1    11   1     0     1     1  1.10e+05   1.10e+05   1.000e+04 
   1    12   1     0     2     2  1.20e+05   1.20e+05   1.000e+04 
   1    13   1     0     1     1  1.30e+05   1.30e+05   1.000e+04 
   1    14   1     0     2     2  1.40e+05   1.40e+05   1.000e+04 
   1    15   1     0     1     1  1.50e+05   1.50e+05   1.000e+04 
   1    16   1     0     2     2  1.60e+05   1.60e+05   1.000e+04 
   1    17   1     0     1     1  1.70e+05   1.70e+05   1.000e+04 
   1    18   1     0     2     2  1.80e+05   1.80e+05   1.000e+04 
   1    19   1     0     1     1  1.90e+05   1.90e+05   1.000e+04 
   1    20   1     0     2     2  2.00e+05   2.00e+05   1.000e+04 
   1    21   1     0     1     1  2.10e+05   2.10e+05   1.000e+04 
   1    22   1     0     2     2  2.20e+05   2.20e+05   1.000e+04 
   1    23   1     0     1     1  2.30e+05   2.30e+05   1.000e+04 
   1    24   1     0     2     2  2.40e+05   2.40e+05   1.000e+04 
   1    25   1     0     1     1  2.50e+05   2.50e+05   1.000e+04 
   1    26   1     0     2     2  2.60e+05   2.60e+05   1.000e+04 
   1    27   1     0     1     1  2.70e+05   2.70e+05   1.000e+04 
   1    28   1     0     2     2  2.80e+05   2.80e+05   1.000e+04 
   1    29   1     0     1     1  2.90e+05   2.90e+05   1.000e+04 
   1    30   1     0     2     2  3.00e+05   3.00e+05   1.000e+04 
   1    31   1     0     1     1  3.10e+05   3.10e+05   1.000e+04 
   1    32   1     0     2     2  3.20e+05   3.20e+05   1.000e+04 
   1    33   1     0     1     1  3.30e+05   3.30e+05   1.000e+04 
   1    34   1     0     2     2  3.40e+05   3.40e+05   1.000e+04 
   1    35   1     0     1     1  3.50e+05   3.50e+05   1.000e+04 
   1    36   1     0     2     2  3.60e+05   3.60e+05   1.000e+04 
   1    37   1     0     1     1  3.70e+05   3.70e+05   1.000e+04 
   1    38   1     0     2     2  3.80e+05   3.80e+05   1.000e+04 
   1    39   1     0     1     1  3.90e+05   3.90e+05   1.000e+04 
   1    40   1     0     2     2  4.00e+05   4.00e+05   1.000e+04 
   1    41   1     0     1     1  4.10e+05   4.10e+05   1.000e+04 
   1    42   1     0     2     2  4.20e+05   4.20e+05   1.000e+04 
   1    43   1     0     1     1  4.30e+05   4.30e+05   1.000e+04 
   1    44   1     0     2     2  4.40e+05   4.40e+05   1.000e+04 
   1    45   1     0     1     1  4.50e+05   4.50e+05   1.000e+04 
   1    46   1     0     2     2  4.60e+05   4.60e+05   1.000e+04 
   1    47   1     0     1     1  4.70e+05   4.70e+05   1.000e+04 
   1    48   1     0     2     2  4.80e+05   4.80e+05   1.000e+04 
   1    49   1     0     1     1  4.90e+05   4.90e+05   1.000e+04 
   1    50   1     0     2     2  5.00e+05   5.00e+05   1.000e+04 
   1    51   1     0     1     1  5.10e+05   5.10e+05   1.000e+04 
   1    52   1     0     2     2  5.20e+05   5.20e+05   1.000e+04 
   1    53   1     0     1     1  5.30e+05   5.30e+05   1.000e+04 
   1    54   1     0     2     2  5.40e+05   5.40e+05   1.000e+04 
   1    55   1     0     1     1  5.50e+05   5.50e+05   1.000e+04 
   1    56   1     0     2     2  5.60e+05   5.60e+05   1.000e+04 
   1    57   1     0     1     1  5.70e+05   5.70e+05   1.000e+04 
   1    58   1     0     2     2  5.80e+05   5.80e+05   1.000e+04 
   1    59   1     0     1     1  5.90e+05   5.90e+05   1.000e+04 
   1    60   1     0     2     2  6.00e+05   6.00e+05   1.000e+04 
   1    61   1     0     1     1  6.10e+05   6.10e+05   1.000e+04 
   1    62   1     0     2     2  6.20e+05   6.20e+05   1.000e+04 
   1    63   1     0     1     1  6.30e+05   6.30e+05   1.000e+04 
   1    64   1     0     2     2  6.40e+05   6.40e+05   1.000e+04 
   1    65   1     0     1     1  6.50e+05   6.50e+05   1.000e+04 
   1    66   1     0     2     2  6.60e+05   6.60e+05   1.000e+04 
   1    67   1     0     1     1  6.70e+05   6.70e+05   1.000e+04 
   1    68   1     0     2     2  6.80e+05   6.80e+05   1.000e+04 
   1    69   1     0     1     1  6.90e+05   6.90e+05   1.000e+04 
   1    70   1     0     2     2  7.00e+05   7.00e+05   1.000e+04 
   1    71   1     0     1     1  7.10e+05   7.10e+05   1.000e+04 
   1    72   1     0     2     2  7.20e+05   7.20e+05   1.000e+04 
   1    73   1     0     1     1  7.30e+05   7.30e+05   1.000e+04 
   1    74   1     0     2     2  7.40e+05   7.40e+05   1.000e+04 
   1    75   1     0     1     1  7.50e+05   7.50e+05   1.000e+04 
   1    76   1     0     2     2  7.60e+05   7.60e+05   1.000e+04 
   1    77   1     0     1     1  7.70e+05   7.70e+05   1.000e+04 
   1    78   1     0     2     2  7.80e+05   7.80e+05   1.000e+04 
   1    79   1     0     1     1  7.90e+05   7.90e+05   1.000e+04 
   1    80   1     0     2     2  8.00e+05   8.00e+05   1.000e+04 
   1    81   1     0     1     1  8.10e+05   8.10e+05   1.000e+04 
   1    82   1     0     2     2  8.20e+05   8.20e+05   1.000e+04 
   1    83   1     0     1     1  8.30e+05   8.30e+05   1.000e+04 
   1    84   1     0     2     2  8.40e+05   8.40e+05   1.000e+04 
   1    85   1     0     1     1  8.50e+05   8.50e+05   1.000e+04 
   1    86   1     0     2     2  8.60e+05   8.60e+05   1.000e+04 
   1    87   1     0     1     1  8.70e+05   8.70e+05   1.000e+04 
   1    88   1     0     2     2  8.80e+05   8.80e+05   1.000e+04 
   1    89   1     0     1     1  8.90e+05   8.90e+05   1.000e+04 
   1    90   1     0     2     2  9.00e+05   9.00e+05   1.000e+04 
   1    91   1     0     1     1  9.10e+05   9.10e+05   1.000e+04 
   1    92   1     0     2     2  9.20e+05   9.20e+05   1.000e+04 
   1    93   1     0     1     1  9.30e+05   9.30e+05   1.000e+04 
   1    94   1     0     2     2  9.40e+05   9.40e+05   1.000e+04 
   1    95   1     0     1     1  9.50e+05   9.50e+05   1.000e+04 
   1    96   1     0     2     2  9.60e+05   9.60e+05   1.000e+04 
   1    97   1     0     1     1  9.70e+05   9.70e+05   1.000e+04 
   1    98   1     0     1     1  9.80e+05   9.80e+05   1.000e+04 
   1    99   1     0     1     1  9.90e+05   9.90e+05   1.000e+04 
   1   100   1     0     1     1  1.00e+06   1.00e+06   1.000e+04 
   1   101   1     0     1     1  1.01e+06   1.01e+06   1.000e+04 
   1   102   1     0     1     1  1.02e+06   1.02e+06   1.000e+04 
   1   103   1     0     1     1  1.03e+06   1.03e+06   1.000e+04 
   1   104   1     0     1     1  1.04e+06   1.04e+06   1.000e+04 
   1   105   1     0     1     1  1.05e+06   1.05e+06   1.000e+04 
   1   106   1     0     1     1  1.06e+06   1.06e+06   1.000e+04 
   1   107   1     0     1     1  1.07e+06   1.07e+06   1.000e+04 
   1   108   1     0     1     1  1.08e+06   1.08e+06   1.000e+04 
   1   109   1     0     1     1  1.09e+06   1.09e+06   1.000e+04 
   1   110   1     0     1     1  1.10e+06   1.10e+06   1.000e+04 
   1   111   1     0     1     1  1.11e+06   1.11e+06   1.000e+04 
   1   112   1     0     1     1  1.12e+06   1.12e+06   1.000e+04 
   1   113   1     0     1     1  1.13e+06   1.13e+06   1.000e+04 
   1   114   1     0     1     1  1.14e+06   1.14e+06   1.000e+04 
   1   115   1     0     1     1  1.15e+06   1.15e+06   1.000e+04 
   1   116   1     0     1     1  1.16e+06   1.16e+06   1.000e+04 
   1   117   1     0     1     1  1.17e+06   1.17e+06   1.000e+04 
   1   118   1     0     1     1  1.18e+06   1.18e+06   1.000e+04 
   1   119   1     0     1     1  1.19e+06   1.19e+06   1.000e+04 
   1   120   1     0     1     1  1.20e+06   1.20e+06   1.000e+04 
   1   121   1     0     1     1  1.21e+06   1.21e+06   1.000e+04 
   1   122   1     0     1     1  1.22e+06   1.22e+06   1.000e+04 
   1   123   1     0     1     1  1.23e+06   1.23e+06   1.000e+04 
   1   124   1     0     1     1  1.24e+06   1.24e+06   1.000e+04 
   1   125   1     0     1     1  1.25e+06   1.25e+06   1.000e+04 
   1   126   1     0     1     1  1.26e+06   1.26e+06   1.000e+04 
   1   127   1     0     1     1  1.27e+06   1.27e+06   1.000e+04 
   1   128   1     0     1     1  1.28e+06   1.28e+06   1.000e+04 
   1   129   1     0     1     1  1.29e+06   1.29e+06   1.000e+04 
   1   130   1     0     1     1  1.30e+06   1.30e+06   1.000e+04 
   1   131   1     0     1     1  1.31e+06   1.31e+06   1.000e+04 
   1   132   1     0     1     1  1.32e+06   1.32e+06   1.000e+04 
   1   133   1     0     1     1  1.33e+06   1.33e+06   1.000e+04 
   1   134   1     0     1     1  1.34e+06   1.34e+06   1.000e+04 
   1   135   1     0     1     1  1.35e+06   1.35e+06   1.000e+04 
   1   136   1     0     1     1  1.36e+06   1.36e+06   1.000e+04 
   1   137   1     0     1     1  1.37e+06   1.37e+06   1.000e+04 
   1   138   1     0     1     1  1.38e+06   1.38e+06   1.000e+04 
   1   139   1     0     1     1  1.39e+06   1.39e+06   1.000e+04 
   1   140   1     0     1     1  1.40e+06   1.40e+06   1.000e+04 
   1   141   1     0     1     1  1.41e+06   1.41e+06   1.000e+04 
   1   142   1     0     1     1  1.42e+06   1.42e+06   1.000e+04 
   1   143   1     0     1     1  1.43e+06   1.43e+06   1.000e+04 
   1   144   1     0     1     1  1.44e+06   1.44e+06   1.000e+04 
   1   145   1     0     1     1  1.45e+06   1.45e+06   1.000e+04 
   1   146   1     0     1     1  1.46e+06   1.46e+06   1.000e+04 
   1   147   1     0     1     1  1.47e+06   1.47e+06   1.000e+04 
   1   148   1     0     1     1  1.48e+06   1.48e+06   1.000e+04 
   1   149   1     0     1     1  1.49e+06   1.49e+06   1.000e+04 
   1   150   1     0     1     1  1.50e+06   1.50e+06   1.000e+04 
   1   151   1     0     1     1  1.51e+06   1.51e+06   1.000e+04 
   1   152   1     0     1     1  1.52e+06   1.52e+06   1.000e+04 
   1   153   1     0     1     1  1.53e+06   1.53e+06   1.000e+04 
   1   154   1     0     1     1  1.54e+06   1.54e+06   1.000e+04 
   1   155   1     0     1     1  1.55e+06   1.55e+06   1.000e+04 
   1   156   1     0     1     1  1.56e+06   1.56e+06   1.000e+04 
   1   157   1     0     1     1  1.57e+06   1.57e+06   1.000e+04 
   1   158   1     0     1     1  1.58e+06   1.58e+06   1.000e+04 
   1   159   1     0     1     1  1.59e+06   1.59e+06   1.000e+04 
   1   160   1     0     1     1  1.60e+06   1.60e+06   1.000e+04 
   1   161   1     0     1     1  1.61e+06   1.61e+06   1.000e+04 
   1   162   1     0     1     1  1.62e+06   1.62e+06   1.000e+04 
   1   163   1     0     1     1  1.63e+06   1.63e+06   1.000e+04 
   1   164   1     0     1     1  1.64e+06   1.64e+06   1.000e+04 
   1   165   1     0     1     1  1.65e+06   1.65e+06   1.000e+04 
   1   166   1     0     1     1  1.66e+06   1.66e+06   1.000e+04 
   1   167   1     0     1     1  1.67e+06   1.67e+06   1.000e+04 
   1   168   1     0     1     1  1.68e+06   1.68e+06   1.000e+04 
   1   169   1     0     1     1  1.69e+06   1.69e+06   1.000e+04 
   1   170   1     0     1     1  1.70e+06   1.70e+06   1.000e+04 
   1   171   1     0     1     1  1.71e+06   1.71e+06   1.000e+04 
   1   172   1     0     1     1  1.72e+06   1.72e+06   1.000e+04 
   1   173   1     0     1     1  1.73e+06   1.73e+06   1.000e+04 
   1   174   1     0     1     1  1.74e+06   1.74e+06   1.000e+04 
   1   175   1     0     1     1  1.75e+06   1.75e+06   1.000e+04 
   1   176   1     0     1     1  1.76e+06   1.76e+06   1.000e+04 
   1   177   1     0     1     1  1.77e+06   1.77e+06   1.000e+04 
   1   178   1     0     1     1  1.78e+06   1.78e+06   1.000e+04 
   1   179   1     0     1     1  1.79e+06   1.79e+06   1.000e+04 
   1   180   1     0     1     1  1.80e+06   1.80e+06   1.000e+04 
   1   181   1     0     1     1  1.81e+06   1.81e+06   1.000e+04 
   1   182   1     0     1     1  1.82e+06   1.82e+06   1.000e+04 
   1   183   1     0     1     1  1.83e+06   1.83e+06   1.000e+04 
   1   184   1     0     1     1  1.84e+06   1.84e+06   1.000e+04 
   1   185   1     0     1     1  1.85e+06   1.85e+06   1.000e+04 
   1   186   1     0     1     1  1.86e+06   1.86e+06   1.000e+04 
   1   187   1     0     1     1  1.87e+06   1.87e+06   1.000e+04 
   1   188   1     0     1     1  1.88e+06   1.88e+06   1.000e+04 
   1   189   1     0     1     1  1.89e+06   1.89e+06   1.000e+04 
   1   190   1     0     1     1  1.90e+06   1.90e+06   1.000e+04 
   1   191   1     0     1     1  1.91e+06   1.91e+06   1.000e+04 
   1   192   1     0     1     1  1.92e+06   1.92e+06   1.000e+04 
   1   193   1     0     1     1  1.93e+06   1.93e+06   1.000e+04 
   1   194   1     0     1     1  1.94e+06   1.94e+06   1.000e+04 
   1   195   1     0     1     1  1.95e+06   1.95e+06   1.000e+04 
   1   196   1     0     1     1  1.96e+06   1.96e+06   1.000e+04 
   1   197   1     0     1     1  1.97e+06   1.97e+06   1.000e+04 
   1   198   1     0     1     1  1.98e+06   1.98e+06   1.000e+04 
   1   199   1     0     1     1  1.99e+06   1.99e+06   1.000e+04 
   1   200   1     0     1     1  2.00e+06   2.00e+06   1.000e+04 
   1   201   1     0     1     1  2.01e+06   2.01e+06   1.000e+04 
   1   202   1     0     1     1  2.02e+06   2.02e+06   1.000e+04 
   1   203   1     0     1     1  2.03e+06   2.03e+06   1.000e+04 
   1   204   1     0     1     1  2.04e+06   2.04e+06   1.000e+04 
   1   205   1     0     1     1  2.05e+06   2.05e+06   1.000e+04 
   1   206   1     0     1     1  2.06e+06   2.06e+06   1.000e+04 
   1   207   1     0     1     1  2.07e+06   2.07e+06   1.000e+04 
   1   208   1     0     1     1  2.08e+06   2.08e+06   1.000e+04 
   1   209   1     0     1     1  2.09e+06   2.09e+06   1.000e+04 
   1   210   1     0     1     1  2.10e+06   2.10e+06   1.000e+04 
   1   211   1     0     1     1  2.11e+06   2.11e+06   1.000e+04 
   1   212   1     0     1     1  2.12e+06   2.12e+06   1.000e+04 
   1   213   1     0     1     1  2.13e+06   2.13e+06   1.000e+04 
   1   214   1     0     1     1  2.14e+06   2.14e+06   1.000e+04 
   1   215   1     0     1     1  2.15e+06   2.15e+06   1.000e+04 
   1   216   1     0     1     1  2.16e+06   2.16e+06   1.000e+04 
   1   217   1     0     1     1  2.17e+06   2.17e+06   1.000e+04 
   1   218   1     0     1     1  2.18e+06   2.18e+06   1.000e+04 
   1   219   1     0     1     1  2.19e+06   2.19e+06   1.000e+04 
   1   220   1     0     1     1  2.20e+06   2.20e+06   1.000e+04 
   1   221   1     0     1     1  2.21e+06   2.21e+06   1.000e+04 
   1   222   1     0     1     1  2.22e+06   2.22e+06   1.000e+04 
   1   223   1     0     1     1  2.23e+06   2.23e+06   1.000e+04 
   1   224   1     0     1     1  2.24e+06   2.24e+06   1.000e+04 
   1   225   1     0     1     1  2.25e+06   2.25e+06   1.000e+04 
   1   226   1     0     1     1  2.26e+06   2.26e+06   1.000e+04 
   1   227   1     0     1     1  2.27e+06   2.27e+06   1.000e+04 
   1   228   1     0     1     1  2.28e+06   2.28e+06   1.000e+04 
   1   229   1     0     1     1  2.29e+06   2.29e+06   1.000e+04 
   1   230   1     0     1     1  2.30e+06   2.30e+06   1.000e+04 
   1   231   1     0     1     1  2.31e+06   2.31e+06   1.000e+04 
   1   232   1     0     1     1  2.32e+06   2.32e+06   1.000e+04 
   1   233   1     0     1     1  2.33e+06   2.33e+06   1.000e+04 
   1   234   1     0     1     1  2.34e+06   2.34e+06   1.000e+04 
   1   235   1     0     1     1  2.35e+06   2.35e+06   1.000e+04 
   1   236   1     0     1     1  2.36e+06   2.36e+06   1.000e+04 
   1   237   1     0     1     1  2.37e+06   2.37e+06   1.000e+04 
   1   238   1     0     1     1  2.38e+06   2.38e+06   1.000e+04 
   1   239   1     0     1     1  2.39e+06   2.39e+06   1.000e+04 
   1   240   1     0     1     1  2.40e+06   2.40e+06   1.000e+04 
   1   241   1     0     1     1  2.41e+06   2.41e+06   1.000e+04 
   1   242   1     0     1     1  2.42e+06   2.42e+06   1.000e+04 
   1   243   1     0     1     1  2.43e+06   2.43e+06   1.000e+04 
   1   244   1     0     1     1  2.44e+06   2.44e+06   1.000e+04 
   1   245   1     0     1     1  2.45e+06   2.45e+06   1.000e+04 
   1   246   1     0     1     1  2.46e+06   2.46e+06   1.000e+04 
   1   247   1     0     1     1  2.47e+06   2.47e+06   1.000e+04 
   1   248   1     0     1     1  2.48e+06   2.48e+06   1.000e+04 
   1   249   1     0     1     1  2.49e+06   2.49e+06   1.000e+04 
   1   250   1     0     1     1  2.50e+06   2.50e+06   1.000e+04 
   1   251   1     0     1     1  2.51e+06   2.51e+06   1.000e+04 
   1   252   1     0     1     1  2.52e+06   2.52e+06   1.000e+04 
   1   253   1     0     1     1  2.53e+06   2.53e+06   1.000e+04 
   1   254   1     0     1     1  2.54e+06   2.54e+06   1.000e+04 
   1   255   1     0     1     1  2.55e+06   2.55e+06   1.000e+04 
   1   256   1     0     1     1  2.56e+06   2.56e+06   1.000e+04 
   1   257   1     0     1     1  2.57e+06   2.57e+06   1.000e+04 
   1   258   1     0     1     1  2.58e+06   2.58e+06   1.000e+04 
   1   259   1     0     1     1  2.59e+06   2.59e+06   1.000e+04 
   1   260   1     0     1     1  2.60e+06   2.60e+06   1.000e+04 
   1   261   1     0     1     1  2.61e+06   2.61e+06   1.000e+04 
   1   262   1     0     1     1  2.62e+06   2.62e+06   1.000e+04 
   1   263   1     0     1     1  2.63e+06   2.63e+06   1.000e+04 
   1   264   1     0     1     1  2.64e+06   2.64e+06   1.000e+04 
   1   265   1     0     1     1  2.65e+06   2.65e+06   1.000e+04 
   1   266   1     0     1     1  2.66e+06   2.66e+06   1.000e+04 
   1   267   1     0     1     1  2.67e+06   2.67e+06   1.000e+04 
   1   268   1     0     1     1  2.68e+06   2.68e+06   1.000e+04 
   1   269   1     0     1     1  2.69e+06   2.69e+06   1.000e+04 
   1   270   1     0     1     1  2.70e+06   2.70e+06   1.000e+04 
   1   271   1     0     1     1  2.71e+06   2.71e+06   1.000e+04 
   1   272   1     0     1     1  2.72e+06   2.72e+06   1.000e+04 
   1   273   1     0     1     1  2.73e+06   2.73e+06   1.000e+04 
   1   274   1     0     1     1  2.74e+06   2.74e+06   1.000e+04 
   1   275   1     0     1     1  2.75e+06   2.75e+06   1.000e+04 
   1   276   1     0     1     1  2.76e+06   2.76e+06   1.000e+04 
   1   277   1     0     1     1  2.77e+06   2.77e+06   1.000e+04 
   1   278   1     0     1     1  2.78e+06   2.78e+06   1.000e+04 
   1   279   1     0     1     1  2.79e+06   2.79e+06   1.000e+04 
   1   280   1     0     1     1  2.80e+06   2.80e+06   1.000e+04 
   1   281   1     0     1     1  2.81e+06   2.81e+06   1.000e+04 
   1   282   1     0     1     1  2.82e+06   2.82e+06   1.000e+04 
   1   283   1     0     1     1  2.83e+06   2.83e+06   1.000e+04 
   1   284   1     0     1     1  2.84e+06   2.84e+06   1.000e+04 
   1   285   1     0     1     1  2.85e+06   2.85e+06   1.000e+04 
   1   286   1     0     1     1  2.86e+06   2.86e+06   1.000e+04 
   1   287   1     0     1     1  2.87e+06   2.87e+06   1.000e+04 
   1   288   1     0     1     1  2.88e+06   2.88e+06   1.000e+04 
   1   289   1     0     1     1  2.89e+06   2.89e+06   1.000e+04 
   1   290   1     0     1     1  2.90e+06   2.90e+06   1.000e+04 
   1   291   1     0     1     1  2.91e+06   2.91e+06   1.000e+04 
   1   292   1     0     1     1  2.92e+06   2.92e+06   1.000e+04 
   1   293   1     0     1     1  2.93e+06   2.93e+06   1.000e+04 
   1   294   1     0     1     1  2.94e+06   2.94e+06   1.000e+04 
   1   295   1     0     1     1  2.95e+06   2.95e+06   1.000e+04 
   1   296   1     0     1     1  2.96e+06   2.96e+06   1.000e+04 
   1   297   1     0     1     1  2.97e+06   2.97e+06   1.000e+04 
   1   298   1     0     1     1  2.98e+06   2.98e+06   1.000e+04 
   1   299   1     0     1     1  2.99e+06   2.99e+06   1.000e+04 
   1   300   1     0     1     1  3.00e+06   3.00e+06   1.000e+04 
   1   301   1     0     1     1  3.01e+06   3.01e+06   1.000e+04 
   1   302   1     0     1     1  3.02e+06   3.02e+06   1.000e+04 
   1   303   1     0     1     1  3.03e+06   3.03e+06   1.000e+04 
   1   304   1     0     1     1  3.04e+06   3.04e+06   1.000e+04 
   1   305   1     0     1     1  3.05e+06   3.05e+06   1.000e+04 
   1   306   1     0     1     1  3.06e+06   3.06e+06   1.000e+04 
   1   307   1     0     1     1  3.07e+06   3.07e+06   1.000e+04 
   1   308   1     0     1     1  3.08e+06   3.08e+06   1.000e+04 
   1   309   1     0     1     1  3.09e+06   3.09e+06   1.000e+04 
   1   310   1     0     1     1  3.10e+06   3.10e+06   1.000e+04 
   1   311   1     0     1     1  3.11e+06   3.11e+06   1.000e+04 
   1   312   1     0     1     1  3.12e+06   3.12e+06   1.000e+04 
   1   313   1     0     1     1  3.13e+06   3.13e+06   1.000e+04 
   1   314   1     0     1     1  3.14e+06   3.14e+06   1.000e+04 
   1   315   1     0     1     1  3.15e+06   3.15e+06   1.000e+04 
   1   316   1     0     1     1  3.16e+06   3.16e+06   1.000e+04 
   1   317   1     0     1     1  3.17e+06   3.17e+06   1.000e+04 
   1   318   1     0     1     1  3.18e+06   3.18e+06   1.000e+04 
   1   319   1     0     1     1  3.19e+06   3.19e+06   1.000e+04 
   1   320   1     0     1     1  3.20e+06   3.20e+06   1.000e+04 
   1   321   1     0     1     1  3.21e+06   3.21e+06   1.000e+04 
   1   322   1     0     1     1  3.22e+06   3.22e+06   1.000e+04 
   1   323   1     0     1     1  3.23e+06   3.23e+06   1.000e+04 
   1   324   1     0     1     1  3.24e+06   3.24e+06   1.000e+04 
   1   325   1     0     1     1  3.25e+06   3.25e+06   1.000e+04 
   1   326   1     0     1     1  3.26e+06   3.26e+06   1.000e+04 
   1   327   1     0     1     1  3.27e+06   3.27e+06   1.000e+04 
   1   328   1     0     1     1  3.28e+06   3.28e+06   1.000e+04 
   1   329   1     0     1     1  3.29e+06   3.29e+06   1.000e+04 
   1   330   1     0     1     1  3.30e+06   3.30e+06   1.000e+04 
   1   331   1     0     1     1  3.31e+06   3.31e+06   1.000e+04 
   1   332   1     0     1     1  3.32e+06   3.32e+06   1.000e+04 
   1   333   1     0     1     1  3.33e+06   3.33e+06   1.000e+04 
   1   334   1     0     1     1  3.34e+06   3.34e+06   1.000e+04 
   1   335   1     0     1     1  3.35e+06   3.35e+06   1.000e+04 
   1   336   1     0     1     1  3.36e+06   3.36e+06   1.000e+04 
   1   337   1     0     1     1  3.37e+06   3.37e+06   1.000e+04 
   1   338   1     0     1     1  3.38e+06   3.38e+06   1.000e+04 
   1   339   1     0     1     1  3.39e+06   3.39e+06   1.000e+04 
   1   340   1     0     1     1  3.40e+06   3.40e+06   1.000e+04 
   1   341   1     0     1     1  3.41e+06   3.41e+06   1.000e+04 
   1   342   1     0     1     1  3.42e+06   3.42e+06   1.000e+04 
   1   343   1     0     1     1  3.43e+06   3.43e+06   1.000e+04 
   1   344   1     0     1     1  3.44e+06   3.44e+06   1.000e+04 
   1   345   1     0     1     1  3.45e+06   3.45e+06   1.000e+04 
   1   346   1     0     1     1  3.46e+06   3.46e+06   1.000e+04 
   1   347   1     0     1     1  3.47e+06   3.47e+06   1.000e+04 
   1   348   1     0     1     1  3.48e+06   3.48e+06   1.000e+04 
   1   349   1     0     1     1  3.49e+06   3.49e+06   1.000e+04 
   1   350   1     0     1     1  3.50e+06   3.50e+06   1.000e+04 
   1   351   1     0     1     1  3.51e+06   3.51e+06   1.000e+04 
   1   352   1     0     1     1  3.52e+06   3.52e+06   1.000e+04 
   1   353   1     0     1     1  3.53e+06   3.53e+06   1.000e+04 
   1   354   1     0     1     1  3.54e+06   3.54e+06   1.000e+04 
   1   355   1     0     1     1  3.55e+06   3.55e+06   1.000e+04 
   1   356   1     0     1     1  3.56e+06   3.56e+06   1.000e+04 
   1   357   1     0     1     1  3.57e+06   3.57e+06   1.000e+04 
   1   358   1     0     1     1  3.58e+06   3.58e+06   1.000e+04 
   1   359   1     0     1     1  3.59e+06   3.59e+06   1.000e+04 
   1   360   1     0     1     1  3.60e+06   3.60e+06   1.000e+04 
   1   361   1     0     1     1  3.61e+06   3.61e+06   1.000e+04 
   1   362   1     0     1     1  3.62e+06   3.62e+06   1.000e+04 
   1   363   1     0     1     1  3.63e+06   3.63e+06   1.000e+04 
   1   364   1     0     1     1  3.64e+06   3.64e+06   1.000e+04 
   1   365   1     0     1     1  3.65e+06   3.65e+06   1.000e+04 
   1   366   1     0     1     1  3.66e+06   3.66e+06   1.000e+04 
   1   367   1     0     1     1  3.67e+06   3.67e+06   1.000e+04 
   1   368   1     0     1     1  3.68e+06   3.68e+06   1.000e+04 
   1   369   1     0     1     1  3.69e+06   3.69e+06   1.000e+04 
   1   370   1     0     1     1  3.70e+06   3.70e+06   1.000e+04 
   1   371   1     0     1     1  3.71e+06   3.71e+06   1.000e+04 
   1   372   1     0    16    16  3.71e+06   3.71e+06   1.000e+04 
                          
 THE ANALYSIS HAS NOT BEEN COMPLETED
